<?xml version="1.0" encoding="UTF-8"?> <routes> <vType id="veh_passenger" vClass="passenger" /><vehicle id="r0" type="veh_passenger" depart="0" departLane="best"> <route edges="-23157554#3 3869806#0 5108912#0 -192658999#5 "/> </vehicle>  
<vehicle id="r1" type="veh_passenger" depart="0" departLane="best"> <route edges="4061636#0 192659011 192659009 192659008 608715638 125736654 331957591 225605616 968811663#0 947594504 126304919 947594503 "/> </vehicle>  
<vehicle id="r2" type="veh_passenger" depart="0" departLane="best"> <route edges="24905254 24905255#0 24905256#0 24905256#2 857806575 857806576 8130905#0 4003928 3991777#0 608715536#1 608715538 -9864377#3 -916922550#1 105073083 576798578 "/> </vehicle>  
<vehicle id="r3" type="veh_passenger" depart="0" departLane="best"> <route edges="23832344 125736654 331957591 225605616 968811663#0 947594504 126304919 947594503 134969628 134969637 "/> </vehicle>  
<vehicle id="r4" type="veh_passenger" depart="0" departLane="best"> <route edges="3343970#6 3343968 3991663#0 3991678#0 3991622#0 670002670#1 459216320#0 446474263#0 446474263#2 "/> </vehicle>  
<vehicle id="r5" type="veh_passenger" depart="0" departLane="best"> <route edges="-10362550#1 112566010 112566021#0 112566017 112566006 112565996 101388654#0 192559636 101388652 345381455 101388643#0 315666513 345381450 949701269 345381451 351000218#0 440732691 1155226687 156994855 1229291329 "/> </vehicle>  
<vehicle id="r6" type="veh_passenger" depart="0" departLane="best"> <route edges="-608818920#2 239932051#0 107068083#0 -107068083#3 "/> </vehicle>  
<vehicle id="r7" type="veh_passenger" depart="0" departLane="best"> <route edges="688600643#0 126348346#0 126348346#3 126348346#6 131632250#0 -131632250#2 "/> </vehicle>  
<vehicle id="r8" type="veh_passenger" depart="0" departLane="best"> <route edges="-10362550#1 -440732694 125835557#0 242622344 112566018#0 -80284458#3 22939181 -38245536 "/> </vehicle>  
<vehicle id="r9" type="veh_passenger" depart="0" departLane="best"> <route edges="-3752553#7 3752553#6 3752553#8 -53064217#1 3358669#7 126304940#0 126304941#0 126304941#6 295116788#0 27818682#0 27818682#1 27818682#4 27818682#5 27818682#6 27818682#7 192559605#1 192559605#2 147850136 "/> </vehicle>  
<vehicle id="r10" type="veh_passenger" depart="0" departLane="best"> <route edges="-10362550#1 -440732694 -112565988 112566019#2 -149116016 149116020#1 149116020#2 149116006 -23950586#0 -125835530#1 -179193418#1 -13823567 -179193410 -12372942 23950550 -23950551 12372940#0 12372940#1 "/> </vehicle>  
<vehicle id="r11" type="veh_passenger" depart="0" departLane="best"> <route edges="26410313#0 25933419#6 -17414466#8 -17414466#7 -17414466#6 "/> </vehicle>  
<vehicle id="r12" type="veh_passenger" depart="0" departLane="best"> <route edges="3869830#2 -3869830#2 -3869830#1 -17410062#3 3869834#0 297017195#0 23237286#1 3877007#0 3877006 125472523 3390204 -24471496#1 24471496#0 "/> </vehicle>  
<vehicle id="r13" type="veh_passenger" depart="0" departLane="best"> <route edges="26410313#0 -25933419#5 -25933419#2 -25933419#1 25933421#0 25933421#2 10155462#4 -25806807#1 -25806807#0 -151093190 25806800 "/> </vehicle>  
<vehicle id="r14" type="veh_passenger" depart="0" departLane="best"> <route edges="3343954#0 589006899 670002675 71745449 898173885#1 13523066#0 1056637435 1056637435-AddedOffRampEdge 586268890#0 863272998 863272997 4003927#2 4003927#5 15083398#0 19793199 "/> </vehicle>  
<vehicle id="r15" type="veh_passenger" depart="0" departLane="best"> <route edges="33284921 -125835551#1 33284920 550895386 -15081954#5 -15081954#4 139695841 -27625960#4 -27625960#3 "/> </vehicle>  
<vehicle id="r16" type="veh_passenger" depart="0" departLane="best"> <route edges="-25933423#4 -25806802 -151093190 25806800 -25806800 "/> </vehicle>  
<vehicle id="r17" type="veh_passenger" depart="0" departLane="best"> <route edges="-25933423#4 -25806802 -151093190 25806800 -25806800 "/> </vehicle>  
<vehicle id="r18" type="veh_passenger" depart="0" departLane="best"> <route edges="301992138#1 301992138#10 301992138#22 301615045 -79299308 -85798761 -23121879 -79002200#4 124042397 284251318#5 284251318#6 284251317#0 -284251317#0 -284251318#16 "/> </vehicle>  
<vehicle id="r19" type="veh_passenger" depart="0" departLane="best"> <route edges="3869830#2 -3869830#2 -3869830#1 -17410062#3 17410062#0 "/> </vehicle>  
<vehicle id="r20" type="veh_passenger" depart="0" departLane="best"> <route edges="688600643#0 3992549#1 3992549#4 3992549#6 844373396#0 843534479#0 843534478#0 -3869822 -330300723 659297690 1231875369#0 3869812#1 3869812#3 374339592#0 374339592#1 126304903#3 126304903#4 659297688 -659297688 "/> </vehicle>  
<vehicle id="r21" type="veh_passenger" depart="0" departLane="best"> <route edges="-37713149#1 -1155226687 -377918607 -351000218#2 440732692#0 345381438#0 -198676304 -198676305#1 118943956 -1082911139#0 -80829606#1 -25933101#2 "/> </vehicle>  
<vehicle id="r22" type="veh_passenger" depart="0" departLane="best"> <route edges="-126304916 126304916 126304928#0 25155106#0 -126304945 -327293825#3 -327293825#1 -327293825#0 -126304965#4 31058499#2 31058506#0 "/> </vehicle>  
<vehicle id="r23" type="veh_passenger" depart="0" departLane="best"> <route edges="-1084279279#21 11064172#0 11064172#7 11064172#10 10575877#0 90634062#0 90634062#1 344507809 344507803#0 11296122#0 -93337266 -517538538 -16383222#0 -111535715 "/> </vehicle>  
<vehicle id="r24" type="veh_passenger" depart="0" departLane="best"> <route edges="-3731749#2 -3731749#1 -100833387 -608916191#0 -8130000#1 -8130000#0 8129999#0 125835597#0 578662065 199586552#0 125835626#0 -53203693#1 572470968#0 1060267622#0 1060267621#0 1060267621#1 1236401508 536950064#0 1236401509 "/> </vehicle>  
<vehicle id="r25" type="veh_passenger" depart="0" departLane="best"> <route edges="521257409#6 688336520#0 688336521 485293334#0 -940919065 -1089609637#1 -139521593#1 27625965#0 27625965#1 -348252109#2 -348252109#1 -348252109#0 -558240042#2 253165430#0 253165430#1 253165430#2 27626219#0 -27625973#2 "/> </vehicle>  
<vehicle id="r26" type="veh_passenger" depart="0" departLane="best"> <route edges="-301615094#18 -301615094#17 -301615094#10 -301615094#6 -301615094#3 -301615094#1 -124042417 -79002200#4 -284251316#2 104794419 -104794419 "/> </vehicle>  
<vehicle id="r27" type="veh_passenger" depart="0" departLane="best"> <route edges="3343973#0 8127646 79002197#0 843033254#2 -3351203#8 -3351203#5 -3351203#2 -3351203#0 608715598#0 608715598#6 13066183#1 608715612 "/> </vehicle>  
<vehicle id="r28" type="veh_passenger" depart="0" departLane="best"> <route edges="-37713149#1 -1155226687 -377918607 -351000218#2 4004855#0 345381453 345381452 949701270 345381449 315666513 "/> </vehicle>  
<vehicle id="r29" type="veh_passenger" depart="0" departLane="best"> <route edges="521257409#6 688336520#0 688336521 485293334#0 -940919066 -126304950#4 -126304950#0 -688347308#2 -23889534#5 23889533 -31058513#1 87304285#0 31058502#1 31092208#0 -126304956#5 126304956#3 "/> </vehicle>  
<vehicle id="r30" type="veh_passenger" depart="0" departLane="best"> <route edges="112917227#0 23707241 25155107#0 10657957#0 10657957#9 31058502#0 -87304285#1 31058513#0 -23889533 23889534#5 126304957#0 126304950#0 126304950#1 "/> </vehicle>  
<vehicle id="r31" type="veh_passenger" depart="0" departLane="best"> <route edges="-61557498#0 -578662071 -123929615#1 123929657#0 843033248#0 843033247 439142855#0 86249595#0 86249619#0 3677944#1 "/> </vehicle>  
<vehicle id="r32" type="veh_passenger" depart="0" departLane="best"> <route edges="-99500153#2 9852941#0 9852941#4 -23041586#4 "/> </vehicle>  
<vehicle id="r33" type="veh_passenger" depart="0" departLane="best"> <route edges="89873168 9904060#4 30050535#0 30050535#1 419978212 -80341408#2 3992542#0 -11996593 85798400 "/> </vehicle>  
<vehicle id="r34" type="veh_passenger" depart="0" departLane="best"> <route edges="33284921 -125835551#1 33284920 550895386 1201366336 1201366335#0 16208382#0 16208382#1 27625963#0 "/> </vehicle>  
<vehicle id="r35" type="veh_passenger" depart="0" departLane="best"> <route edges="8412180#0 8412180#3 293787287#3 3871574#0 294365637 125835570 430047989#1 -136819243 147850151#0 292472297 292472294 148252690#0 148252706 148252702#0 136816763 94780052#0 -136816764 -229771672#1 294038585#0 294038585#2 -294038585#3 "/> </vehicle>  
<vehicle id="r36" type="veh_passenger" depart="0" departLane="best"> <route edges="26410313#0 -25933419#5 -25933419#2 -25933419#1 25933421#0 25933421#2 10155462#4 -25806807#1 -25806807#0 -151093190 25806800 "/> </vehicle>  
<vehicle id="r37" type="veh_passenger" depart="0" departLane="best"> <route edges="125472523 -8302412#0 3390203 125472517#0 3450250 3390201 27022062#0 -27062245#4 27062244#0 461159369#3 461159369#5 8127969#0 8127969#1 8127969#2 -3358673 3358673 -8127969#3 "/> </vehicle>  
<vehicle id="r38" type="veh_passenger" depart="0" departLane="best"> <route edges="-320989025#3 -3358666#2 -320989026 -3450293#1 3328634#0 -265006337 -832174479#2 -832174479#0 -23119710 120086152 3358661 -120086151#1 -578662085 -301552215 956394197#0 -301552213#2 -85799069#1 -301552211#1 -301552210#2 174886300 120125393#3 578662068 174886292 174886289 3328222#0 3677327 608715564 608715568#0 3848769#0 "/> </vehicle>  
<vehicle id="r39" type="veh_passenger" depart="0" departLane="best"> <route edges="25813260#0 842361630#0 -99500150#5 -99500150#2 -99500149#4 -23041586#4 -99500153#2 -99500158 -99500128#2 "/> </vehicle>  
<vehicle id="r40" type="veh_passenger" depart="0" departLane="best"> <route edges="-124190277#3 -124190277#2 510790348 314635787#0 314635787#1 314635787#2 843534478#0 -3869822 126304912#0 903244729#0 3871574#0 294365637 125835570 430047989#1 -136819243 147850151#0 292472297 292472294 148252690#0 148252706 148252702#0 136816763 94780052#0 94780052#3 "/> </vehicle>  
<vehicle id="r41" type="veh_passenger" depart="0" departLane="best"> <route edges="-302138410#0 160912994 3869799#0 11616990 95925400#0 1102893928 3373100#0 301636906#0 301636906#1 301636906#9 95571479 95571485#0 95571485#1 "/> </vehicle>  
<vehicle id="r42" type="veh_passenger" depart="0" departLane="best"> <route edges="-23157554#3 23157554#0 23157554#4 79002193#0 -105447589#5 105447667 192658996#1 192658996#5 96768814#0 124042397 284251318#5 284251318#6 284251317#0 284251317#1 -284251317#1 "/> </vehicle>  
<vehicle id="r43" type="veh_passenger" depart="0" departLane="best"> <route edges="-124190277#3 -124190277#2 510790348 314635787#0 314635787#1 314635787#2 843534478#0 -3869822 126304912#0 903244729#0 3871574#0 294365637 125835570 430047989#1 -136819243 147850151#0 292472297 292472294 148252690#0 148252706 148252702#0 136816763 "/> </vehicle>  
<vehicle id="r44" type="veh_passenger" depart="0" departLane="best"> <route edges="3343954#0 589006899 670002675 898173878 3343975#0 3343975#5 8130897 -8130893#0 -3991680#1 -3991680#0 3991679#1 -439142856#1 439142856#0 "/> </vehicle>  
<vehicle id="r45" type="veh_passenger" depart="0" departLane="best"> <route edges="-290375126#4 147856936#4 3871577#1 1044729460#0 "/> </vehicle>  
<vehicle id="r46" type="veh_passenger" depart="0" departLane="best"> <route edges="4061636#0 192659011 461159358 192659022#0 3424504#0 -3424505#11 -3424505#3 -3424505#2 813979467 123929644#0 123929644#1 "/> </vehicle>  
<vehicle id="r47" type="veh_passenger" depart="0" departLane="best"> <route edges="120086152 3358661 -120086151#1 -578662085 -301552215 956394197#0 -301552213#2 -85799069#1 -301552211#1 -301552210#2 174886300 -70789595#1 -70789595#0 120093639#2 564392134#0 1114905863 1114905862#0 49051774#0 49051774#2 49051775 678915216 "/> </vehicle>  
<vehicle id="r48" type="veh_passenger" depart="0" departLane="best"> <route edges="843534478#0 330300725#0 -314635787#2 -314635787#1 -314635787#0 -510790348 510790349#0 3992548#0 254800931 8133608#0 81457878 6184898#0 -4884707 23000060#0 4884714#0 254811217#0 "/> </vehicle>  
<vehicle id="r49" type="veh_passenger" depart="0" departLane="best"> <route edges="-742307325 -742307323 -152919736#2 -499072205#2 1036486943 1038991214 1036486948#0 101619135#0 101619135#3 101619135#4 101619135#7 101619135#8 101619135#10 112917227#0 35731415#0 35731415#6 35731415#7 35731426#0 35731426#1 11256343#3 -800673084#1 -192706272#3 -318218554#6 10649957 -10649957 "/> </vehicle>  
<vehicle id="c0" type="veh_passenger" depart="0" departLane="best"> <route edges="-23157554#3 3869806#0 5108912#0 -192658999#5 "/> </vehicle>  
<vehicle id="c1" type="veh_passenger" depart="0" departLane="best"> <route edges="4061636#0 192659011 192659009 192659008 608715638 125736654 331957591 225605616 968811663#0 947594504 126304919 947594503 "/> </vehicle>  
<vehicle id="c2" type="veh_passenger" depart="0" departLane="best"> <route edges="24905254 24905255#0 24905256#0 24905256#2 857806575 857806576 8130905#0 4003928 3991777#0 608715536#1 608715538 -9864377#3 -916922550#1 105073083 576798578 "/> </vehicle>  
<vehicle id="c3" type="veh_passenger" depart="0" departLane="best"> <route edges="23832344 125736654 331957591 225605616 968811663#0 947594504 126304919 947594503 134969628 134969637 "/> </vehicle>  
<vehicle id="c4" type="veh_passenger" depart="0" departLane="best"> <route edges="3343970#6 3343968 3991663#0 3991678#0 3991622#0 670002670#1 459216320#0 446474263#0 446474263#2 "/> </vehicle>  
<vehicle id="c5" type="veh_passenger" depart="0" departLane="best"> <route edges="-10362550#1 112566010 112566021#0 112566017 112566006 112565996 101388654#0 192559636 101388652 345381455 101388643#0 315666513 345381450 949701269 345381451 351000218#0 440732691 1155226687 156994855 1229291329 "/> </vehicle>  
<vehicle id="c6" type="veh_passenger" depart="0" departLane="best"> <route edges="-608818920#2 239932051#0 107068083#0 -107068083#3 "/> </vehicle>  
<vehicle id="c7" type="veh_passenger" depart="0" departLane="best"> <route edges="688600643#0 126348346#0 126348346#3 126348346#6 131632250#0 -131632250#2 "/> </vehicle>  
<vehicle id="c8" type="veh_passenger" depart="0" departLane="best"> <route edges="-10362550#1 -440732694 125835557#0 242622344 112566018#0 -80284458#3 22939181 -38245536 "/> </vehicle>  
<vehicle id="c9" type="veh_passenger" depart="0" departLane="best"> <route edges="-3752553#7 3752553#6 3752553#8 -53064217#1 3358669#7 126304940#0 126304941#0 126304941#6 295116788#0 27818682#0 27818682#1 27818682#4 27818682#5 27818682#6 27818682#7 192559605#1 192559605#2 147850136 "/> </vehicle>  
<vehicle id="c10" type="veh_passenger" depart="0" departLane="best"> <route edges="-10362550#1 -440732694 -112565988 112566019#2 -149116016 149116020#1 149116020#2 149116006 -23950586#0 -125835530#1 -179193418#1 -13823567 -179193410 -12372942 23950550 -23950551 12372940#0 12372940#1 "/> </vehicle>  
<vehicle id="c11" type="veh_passenger" depart="0" departLane="best"> <route edges="26410313#0 25933419#6 -17414466#8 -17414466#7 -17414466#6 "/> </vehicle>  
<vehicle id="c12" type="veh_passenger" depart="0" departLane="best"> <route edges="3869830#2 -3869830#2 -3869830#1 -17410062#3 3869834#0 297017195#0 23237286#1 3877007#0 3877006 125472523 3390204 -24471496#1 24471496#0 "/> </vehicle>  
<vehicle id="c13" type="veh_passenger" depart="0" departLane="best"> <route edges="26410313#0 -25933419#5 -25933419#2 -25933419#1 25933421#0 25933421#2 10155462#4 -25806807#1 -25806807#0 -151093190 25806800 "/> </vehicle>  
<vehicle id="c14" type="veh_passenger" depart="0" departLane="best"> <route edges="3343954#0 589006899 670002675 71745449 898173885#1 13523066#0 1056637435 1056637435-AddedOffRampEdge 586268890#0 863272998 863272997 4003927#2 4003927#5 15083398#0 19793199 "/> </vehicle>  
<vehicle id="c15" type="veh_passenger" depart="0" departLane="best"> <route edges="33284921 -125835551#1 33284920 550895386 -15081954#5 -15081954#4 139695841 -27625960#4 -27625960#3 "/> </vehicle>  
<vehicle id="c16" type="veh_passenger" depart="0" departLane="best"> <route edges="-25933423#4 -25806802 -151093190 25806800 -25806800 "/> </vehicle>  
<vehicle id="c17" type="veh_passenger" depart="0" departLane="best"> <route edges="-25933423#4 -25806802 -151093190 25806800 -25806800 "/> </vehicle>  
<vehicle id="c18" type="veh_passenger" depart="0" departLane="best"> <route edges="301992138#1 301992138#10 301992138#22 301615045 -79299308 -85798761 -23121879 -79002200#4 124042397 284251318#5 284251318#6 284251317#0 -284251317#0 -284251318#16 "/> </vehicle>  
<vehicle id="c19" type="veh_passenger" depart="0" departLane="best"> <route edges="3869830#2 -3869830#2 -3869830#1 -17410062#3 17410062#0 "/> </vehicle>  
<vehicle id="c20" type="veh_passenger" depart="0" departLane="best"> <route edges="688600643#0 3992549#1 3992549#4 3992549#6 844373396#0 843534479#0 843534478#0 -3869822 -330300723 659297690 1231875369#0 3869812#1 3869812#3 374339592#0 374339592#1 126304903#3 126304903#4 659297688 -659297688 "/> </vehicle>  
<vehicle id="c21" type="veh_passenger" depart="0" departLane="best"> <route edges="-37713149#1 -1155226687 -377918607 -351000218#2 440732692#0 345381438#0 -198676304 -198676305#1 118943956 -1082911139#0 -80829606#1 -25933101#2 "/> </vehicle>  
<vehicle id="c22" type="veh_passenger" depart="0" departLane="best"> <route edges="-126304916 126304916 126304928#0 25155106#0 -126304945 -327293825#3 -327293825#1 -327293825#0 -126304965#4 31058499#2 31058506#0 "/> </vehicle>  
<vehicle id="c23" type="veh_passenger" depart="0" departLane="best"> <route edges="-1084279279#21 11064172#0 11064172#7 11064172#10 10575877#0 90634062#0 90634062#1 344507809 344507803#0 11296122#0 -93337266 -517538538 -16383222#0 -111535715 "/> </vehicle>  
<vehicle id="c24" type="veh_passenger" depart="0" departLane="best"> <route edges="-3731749#2 -3731749#1 -100833387 -608916191#0 -8130000#1 -8130000#0 8129999#0 125835597#0 578662065 199586552#0 125835626#0 -53203693#1 572470968#0 1060267622#0 1060267621#0 1060267621#1 1236401508 536950064#0 1236401509 "/> </vehicle>  
<vehicle id="c25" type="veh_passenger" depart="0" departLane="best"> <route edges="521257409#6 688336520#0 688336521 485293334#0 -940919065 -1089609637#1 -139521593#1 27625965#0 27625965#1 -348252109#2 -348252109#1 -348252109#0 -558240042#2 253165430#0 253165430#1 253165430#2 27626219#0 -27625973#2 "/> </vehicle>  
<vehicle id="c26" type="veh_passenger" depart="0" departLane="best"> <route edges="-301615094#18 -301615094#17 -301615094#10 -301615094#6 -301615094#3 -301615094#1 -124042417 -79002200#4 -284251316#2 104794419 -104794419 "/> </vehicle>  
<vehicle id="c27" type="veh_passenger" depart="0" departLane="best"> <route edges="3343973#0 8127646 79002197#0 843033254#2 -3351203#8 -3351203#5 -3351203#2 -3351203#0 608715598#0 608715598#6 13066183#1 608715612 "/> </vehicle>  
<vehicle id="c28" type="veh_passenger" depart="0" departLane="best"> <route edges="-37713149#1 -1155226687 -377918607 -351000218#2 4004855#0 345381453 345381452 949701270 345381449 315666513 "/> </vehicle>  
<vehicle id="c29" type="veh_passenger" depart="0" departLane="best"> <route edges="521257409#6 688336520#0 688336521 485293334#0 -940919066 -126304950#4 -126304950#0 -688347308#2 -23889534#5 23889533 -31058513#1 87304285#0 31058502#1 31092208#0 -126304956#5 126304956#3 "/> </vehicle>  
<vehicle id="c30" type="veh_passenger" depart="0" departLane="best"> <route edges="112917227#0 23707241 25155107#0 10657957#0 10657957#9 31058502#0 -87304285#1 31058513#0 -23889533 23889534#5 126304957#0 126304950#0 126304950#1 "/> </vehicle>  
<vehicle id="c31" type="veh_passenger" depart="0" departLane="best"> <route edges="-61557498#0 -578662071 -123929615#1 123929657#0 843033248#0 843033247 439142855#0 86249595#0 86249619#0 3677944#1 "/> </vehicle>  
<vehicle id="c32" type="veh_passenger" depart="0" departLane="best"> <route edges="-99500153#2 9852941#0 9852941#4 -23041586#4 "/> </vehicle>  
<vehicle id="c33" type="veh_passenger" depart="0" departLane="best"> <route edges="89873168 9904060#4 30050535#0 30050535#1 419978212 -80341408#2 3992542#0 -11996593 85798400 "/> </vehicle>  
<vehicle id="c34" type="veh_passenger" depart="0" departLane="best"> <route edges="33284921 -125835551#1 33284920 550895386 1201366336 1201366335#0 16208382#0 16208382#1 27625963#0 "/> </vehicle>  
<vehicle id="c35" type="veh_passenger" depart="0" departLane="best"> <route edges="8412180#0 8412180#3 293787287#3 3871574#0 294365637 125835570 430047989#1 -136819243 147850151#0 292472297 292472294 148252690#0 148252706 148252702#0 136816763 94780052#0 -136816764 -229771672#1 294038585#0 294038585#2 -294038585#3 "/> </vehicle>  
<vehicle id="c36" type="veh_passenger" depart="0" departLane="best"> <route edges="26410313#0 -25933419#5 -25933419#2 -25933419#1 25933421#0 25933421#2 10155462#4 -25806807#1 -25806807#0 -151093190 25806800 "/> </vehicle>  
<vehicle id="c37" type="veh_passenger" depart="0" departLane="best"> <route edges="125472523 -8302412#0 3390203 125472517#0 3450250 3390201 27022062#0 -27062245#4 27062244#0 461159369#3 461159369#5 8127969#0 8127969#1 8127969#2 -3358673 3358673 -8127969#3 "/> </vehicle>  
<vehicle id="c38" type="veh_passenger" depart="0" departLane="best"> <route edges="-320989025#3 -3358666#2 -320989026 -3450293#1 3328634#0 -265006337 -832174479#2 -832174479#0 -23119710 120086152 3358661 -120086151#1 -578662085 -301552215 956394197#0 -301552213#2 -85799069#1 -301552211#1 -301552210#2 174886300 120125393#3 578662068 174886292 174886289 3328222#0 3677327 608715564 608715568#0 3848769#0 "/> </vehicle>  
<vehicle id="c39" type="veh_passenger" depart="0" departLane="best"> <route edges="25813260#0 842361630#0 -99500150#5 -99500150#2 -99500149#4 -23041586#4 -99500153#2 -99500158 -99500128#2 "/> </vehicle>  
<vehicle id="c40" type="veh_passenger" depart="0" departLane="best"> <route edges="-124190277#3 -124190277#2 510790348 314635787#0 314635787#1 314635787#2 843534478#0 -3869822 126304912#0 903244729#0 3871574#0 294365637 125835570 430047989#1 -136819243 147850151#0 292472297 292472294 148252690#0 148252706 148252702#0 136816763 94780052#0 94780052#3 "/> </vehicle>  
<vehicle id="c41" type="veh_passenger" depart="0" departLane="best"> <route edges="-302138410#0 160912994 3869799#0 11616990 95925400#0 1102893928 3373100#0 301636906#0 301636906#1 301636906#9 95571479 95571485#0 95571485#1 "/> </vehicle>  
<vehicle id="c42" type="veh_passenger" depart="0" departLane="best"> <route edges="-23157554#3 23157554#0 23157554#4 79002193#0 -105447589#5 105447667 192658996#1 192658996#5 96768814#0 124042397 284251318#5 284251318#6 284251317#0 284251317#1 -284251317#1 "/> </vehicle>  
<vehicle id="c43" type="veh_passenger" depart="0" departLane="best"> <route edges="-124190277#3 -124190277#2 510790348 314635787#0 314635787#1 314635787#2 843534478#0 -3869822 126304912#0 903244729#0 3871574#0 294365637 125835570 430047989#1 -136819243 147850151#0 292472297 292472294 148252690#0 148252706 148252702#0 136816763 "/> </vehicle>  
<vehicle id="c44" type="veh_passenger" depart="0" departLane="best"> <route edges="3343954#0 589006899 670002675 898173878 3343975#0 3343975#5 8130897 -8130893#0 -3991680#1 -3991680#0 3991679#1 -439142856#1 439142856#0 "/> </vehicle>  
<vehicle id="c45" type="veh_passenger" depart="0" departLane="best"> <route edges="-290375126#4 147856936#4 3871577#1 1044729460#0 "/> </vehicle>  
<vehicle id="c46" type="veh_passenger" depart="0" departLane="best"> <route edges="4061636#0 192659011 461159358 192659022#0 3424504#0 -3424505#11 -3424505#3 -3424505#2 813979467 123929644#0 123929644#1 "/> </vehicle>  
<vehicle id="c47" type="veh_passenger" depart="0" departLane="best"> <route edges="120086152 3358661 -120086151#1 -578662085 -301552215 956394197#0 -301552213#2 -85799069#1 -301552211#1 -301552210#2 174886300 -70789595#1 -70789595#0 120093639#2 564392134#0 1114905863 1114905862#0 49051774#0 49051774#2 49051775 678915216 "/> </vehicle>  
<vehicle id="c48" type="veh_passenger" depart="0" departLane="best"> <route edges="843534478#0 330300725#0 -314635787#2 -314635787#1 -314635787#0 -510790348 510790349#0 3992548#0 254800931 8133608#0 81457878 6184898#0 -4884707 23000060#0 4884714#0 254811217#0 "/> </vehicle>  
<vehicle id="c49" type="veh_passenger" depart="0" departLane="best"> <route edges="-742307325 -742307323 -152919736#2 -499072205#2 1036486943 1038991214 1036486948#0 101619135#0 101619135#3 101619135#4 101619135#7 101619135#8 101619135#10 112917227#0 35731415#0 35731415#6 35731415#7 35731426#0 35731426#1 11256343#3 -800673084#1 -192706272#3 -318218554#6 10649957 -10649957 "/> </vehicle>  
</routes>