<?xml version="1.0" encoding="UTF-8"?> <routes> <vType id="type1" length="5.00" maxSpeed="70.00" accel="2.6" decel="4.5" sigma="0.5" /> 
<flow id = "r0" begin="0" end = "500" departLane="best" number = "100" from = "79801750#11" to = "566137220#3" type="type1"></flow> 
<flow id = "r1" begin="0" end = "500" departLane="best" number = "100" from = "126679459#1" to = "292792629#1" type="type1"></flow> 
<flow id = "r2" begin="0" end = "500" departLane="best" number = "100" from = "3869830#2" to = "-285261142#0" type="type1"></flow> 
<flow id = "r3" begin="0" end = "500" departLane="best" number = "100" from = "309097390#3" to = "-305552017" type="type1"></flow> 
<flow id = "r4" begin="0" end = "500" departLane="best" number = "100" from = "-916926786#3" to = "19793199" type="type1"></flow> 
<flow id = "r5" begin="0" end = "500" departLane="best" number = "100" from = "79801751#0" to = "-419034241#0" type="type1"></flow> 
<flow id = "r6" begin="0" end = "500" departLane="best" number = "100" from = "3869830#2" to = "292212882#7" type="type1"></flow> 
<flow id = "r7" begin="0" end = "500" departLane="best" number = "100" from = "314300035#0" to = "1224487446" type="type1"></flow> 
<flow id = "r8" begin="0" end = "500" departLane="best" number = "100" from = "120086152" to = "1075966945" type="type1"></flow> 
<flow id = "r9" begin="0" end = "500" departLane="best" number = "100" from = "-3343973#0" to = "12707021#4" type="type1"></flow> 
<flow id = "r10" begin="0" end = "500" departLane="best" number = "100" from = "-103068640#0" to = "283392634" type="type1"></flow> 
<flow id = "r11" begin="0" end = "500" departLane="best" number = "100" from = "891216437" to = "459216328#1" type="type1"></flow> 
<flow id = "r12" begin="0" end = "500" departLane="best" number = "100" from = "191355187" to = "-125835547#0" type="type1"></flow> 
<flow id = "r13" begin="0" end = "500" departLane="best" number = "100" from = "-17023221#0" to = "-854670771" type="type1"></flow> 
<flow id = "r14" begin="0" end = "500" departLane="best" number = "100" from = "301992138#1" to = "-616383043#0" type="type1"></flow> 
<flow id = "r15" begin="0" end = "500" departLane="best" number = "100" from = "-742307325" to = "269649601#1" type="type1"></flow> 
<flow id = "r16" begin="0" end = "500" departLane="best" number = "100" from = "134004339" to = "-26830584#0" type="type1"></flow> 
<flow id = "r17" begin="0" end = "500" departLane="best" number = "100" from = "191355187" to = "282276416" type="type1"></flow> 
<flow id = "r18" begin="0" end = "500" departLane="best" number = "100" from = "87304282#6" to = "-286564872" type="type1"></flow> 
<flow id = "r19" begin="0" end = "500" departLane="best" number = "100" from = "578662078#1" to = "23237056#2" type="type1"></flow> 
<flow id = "r20" begin="0" end = "500" departLane="best" number = "100" from = "313456620" to = "314474919#1" type="type1"></flow> 
<flow id = "r21" begin="0" end = "500" departLane="best" number = "100" from = "290156793#8" to = "-293760928#0" type="type1"></flow> 
<flow id = "r22" begin="0" end = "500" departLane="best" number = "100" from = "813979460" to = "150107907#0" type="type1"></flow> 
<flow id = "r23" begin="0" end = "500" departLane="best" number = "100" from = "191355187" to = "-1206945078#1" type="type1"></flow> 
<flow id = "r24" begin="0" end = "500" departLane="best" number = "100" from = "112386323#1" to = "28352298#1" type="type1"></flow> 
<flow id = "r25" begin="0" end = "500" departLane="best" number = "100" from = "3869830#2" to = "1178789157" type="type1"></flow> 
<flow id = "r26" begin="0" end = "500" departLane="best" number = "100" from = "-39682324" to = "37713149#5" type="type1"></flow> 
<flow id = "r27" begin="0" end = "500" departLane="best" number = "100" from = "26410313#2" to = "-304242019#1" type="type1"></flow> 
<flow id = "r28" begin="0" end = "500" departLane="best" number = "100" from = "891216437" to = "517866833#1" type="type1"></flow> 
<flow id = "r29" begin="0" end = "500" departLane="best" number = "100" from = "-17023221#0" to = "409119407" type="type1"></flow> 
<flow id = "r30" begin="0" end = "500" departLane="best" number = "100" from = "79801751#0" to = "-924812429" type="type1"></flow> 
<flow id = "r31" begin="0" end = "500" departLane="best" number = "100" from = "-133531196#1" to = "630732290#3" type="type1"></flow> 
<flow id = "r32" begin="0" end = "500" departLane="best" number = "100" from = "112917249" to = "11302394" type="type1"></flow> 
<flow id = "r33" begin="0" end = "500" departLane="best" number = "100" from = "-662329847" to = "48247154#1" type="type1"></flow> 
<flow id = "r34" begin="0" end = "500" departLane="best" number = "100" from = "-302138410#0" to = "846005905" type="type1"></flow> 
<flow id = "r35" begin="0" end = "500" departLane="best" number = "100" from = "-88361315#0" to = "3731761#5" type="type1"></flow> 
<flow id = "r36" begin="0" end = "500" departLane="best" number = "100" from = "4000691" to = "340093688#0" type="type1"></flow> 
<flow id = "r37" begin="0" end = "500" departLane="best" number = "100" from = "312047479" to = "-1075783853" type="type1"></flow> 
<flow id = "r38" begin="0" end = "500" departLane="best" number = "100" from = "-1135073433" to = "1114905862#1" type="type1"></flow> 
<flow id = "r39" begin="0" end = "500" departLane="best" number = "100" from = "4000691" to = "9262320" type="type1"></flow> 
<flow id = "r40" begin="0" end = "500" departLane="best" number = "100" from = "126679459#1" to = "-997427608" type="type1"></flow> 
<flow id = "r41" begin="0" end = "500" departLane="best" number = "100" from = "-792880289" to = "1198558984" type="type1"></flow> 
<flow id = "r42" begin="0" end = "500" departLane="best" number = "100" from = "-133531196#1" to = "-9388530#0" type="type1"></flow> 
<flow id = "r43" begin="0" end = "500" departLane="best" number = "100" from = "33284921" to = "1087210918" type="type1"></flow> 
<flow id = "r44" begin="0" end = "500" departLane="best" number = "100" from = "120086152" to = "785083381#1" type="type1"></flow> 
<flow id = "r45" begin="0" end = "500" departLane="best" number = "100" from = "-302138410#0" to = "-161057042" type="type1"></flow> 
<flow id = "r46" begin="0" end = "500" departLane="best" number = "100" from = "-27625958#0" to = "130798286#1" type="type1"></flow> 
<flow id = "r47" begin="0" end = "500" departLane="best" number = "100" from = "-39682324" to = "1069373381" type="type1"></flow> 
<flow id = "r48" begin="0" end = "500" departLane="best" number = "100" from = "290156793#8" to = "886305246" type="type1"></flow> 
<flow id = "r49" begin="0" end = "500" departLane="best" number = "100" from = "26410313#2" to = "17414466#2" type="type1"></flow> 
<flow id = "r50" begin="0" end = "500" departLane="best" number = "100" from = "312047479" to = "-51505464#1" type="type1"></flow> 
<flow id = "r51" begin="0" end = "500" departLane="best" number = "100" from = "-207226597#0" to = "12751464#1" type="type1"></flow> 
<flow id = "r52" begin="0" end = "500" departLane="best" number = "100" from = "26410313#2" to = "26410170#1" type="type1"></flow> 
<flow id = "r53" begin="0" end = "500" departLane="best" number = "100" from = "-3752553#7" to = "1047875518" type="type1"></flow> 
<flow id = "r54" begin="0" end = "500" departLane="best" number = "100" from = "112917227#1" to = "69087166" type="type1"></flow> 
<flow id = "r55" begin="0" end = "500" departLane="best" number = "100" from = "33284921" to = "100599268#1" type="type1"></flow> 
<flow id = "r56" begin="0" end = "500" departLane="best" number = "100" from = "-103068640#0" to = "126304965#2" type="type1"></flow> 
<flow id = "r57" begin="0" end = "500" departLane="best" number = "100" from = "374339595" to = "148252697#1" type="type1"></flow> 
<flow id = "r58" begin="0" end = "500" departLane="best" number = "100" from = "-27625958#0" to = "87240827#0" type="type1"></flow> 
<flow id = "r59" begin="0" end = "500" departLane="best" number = "100" from = "578662078#1" to = "105073087#2" type="type1"></flow> 
<flow id = "r60" begin="0" end = "500" departLane="best" number = "100" from = "-120201068#5" to = "-301587126" type="type1"></flow> 
<flow id = "r61" begin="0" end = "500" departLane="best" number = "100" from = "125472523" to = "608715598#6" type="type1"></flow> 
<flow id = "r62" begin="0" end = "500" departLane="best" number = "100" from = "-103068640#0" to = "-1201659269" type="type1"></flow> 
<flow id = "r63" begin="0" end = "500" departLane="best" number = "100" from = "79801751#0" to = "51156835#0" type="type1"></flow> 
<flow id = "r64" begin="0" end = "500" departLane="best" number = "100" from = "29545768#2" to = "-53085949#3" type="type1"></flow> 
<flow id = "r65" begin="0" end = "500" departLane="best" number = "100" from = "813979460" to = "184346177#2" type="type1"></flow> 
<flow id = "r66" begin="0" end = "500" departLane="best" number = "100" from = "325489447#3" to = "1172002182#0" type="type1"></flow> 
<flow id = "r67" begin="0" end = "500" departLane="best" number = "100" from = "-120201068#5" to = "15980431#0" type="type1"></flow> 
<flow id = "r68" begin="0" end = "500" departLane="best" number = "100" from = "-916926786#3" to = "894418145" type="type1"></flow> 
<flow id = "r69" begin="0" end = "500" departLane="best" number = "100" from = "309097390#3" to = "309097404#3" type="type1"></flow> 
<flow id = "r70" begin="0" end = "500" departLane="best" number = "100" from = "312047479" to = "51505464#2" type="type1"></flow> 
<flow id = "r71" begin="0" end = "500" departLane="best" number = "100" from = "-17023221#0" to = "11997479" type="type1"></flow> 
<flow id = "r72" begin="0" end = "500" departLane="best" number = "100" from = "-302138410#0" to = "810190359" type="type1"></flow> 
<flow id = "r73" begin="0" end = "500" departLane="best" number = "100" from = "813979460" to = "254742536#0" type="type1"></flow> 
<flow id = "r74" begin="0" end = "500" departLane="best" number = "100" from = "112917249" to = "419978207" type="type1"></flow> 
<flow id = "r75" begin="0" end = "500" departLane="best" number = "100" from = "-978148215#1" to = "301636906#11" type="type1"></flow> 
<flow id = "r76" begin="0" end = "500" departLane="best" number = "100" from = "112386323#1" to = "9666347" type="type1"></flow> 
<flow id = "r77" begin="0" end = "500" departLane="best" number = "100" from = "-662329847" to = "-93727787#1" type="type1"></flow> 
<flow id = "r78" begin="0" end = "500" departLane="best" number = "100" from = "3343970#7" to = "1037906635#0" type="type1"></flow> 
<flow id = "r79" begin="0" end = "500" departLane="best" number = "100" from = "-3752553#7" to = "-337771297#2" type="type1"></flow> 
<flow id = "r80" begin="0" end = "500" departLane="best" number = "100" from = "3869830#2" to = "3677944#0" type="type1"></flow> 
<flow id = "r81" begin="0" end = "500" departLane="best" number = "100" from = "-61557498#0" to = "303190633#11" type="type1"></flow> 
<flow id = "r82" begin="0" end = "500" departLane="best" number = "100" from = "309097390#3" to = "314629121#2" type="type1"></flow> 
<flow id = "r83" begin="0" end = "500" departLane="best" number = "100" from = "-662329847" to = "301126432#2" type="type1"></flow> 
<flow id = "r84" begin="0" end = "500" departLane="best" number = "100" from = "-916926786#3" to = "-3991616" type="type1"></flow> 
<flow id = "r85" begin="0" end = "500" departLane="best" number = "100" from = "-27625958#0" to = "286275343" type="type1"></flow> 
<flow id = "r86" begin="0" end = "500" departLane="best" number = "100" from = "-61557498#0" to = "510485133" type="type1"></flow> 
<flow id = "r87" begin="0" end = "500" departLane="best" number = "100" from = "4000691" to = "-134470586" type="type1"></flow> 
<flow id = "r88" begin="0" end = "500" departLane="best" number = "100" from = "312047479" to = "14961374#4" type="type1"></flow> 
<flow id = "r89" begin="0" end = "500" departLane="best" number = "100" from = "79801750#11" to = "-8314100#1" type="type1"></flow> 
<flow id = "r90" begin="0" end = "500" departLane="best" number = "100" from = "112386323#1" to = "179193411" type="type1"></flow> 
<flow id = "r91" begin="0" end = "500" departLane="best" number = "100" from = "-978148215#1" to = "3358657" type="type1"></flow> 
<flow id = "r92" begin="0" end = "500" departLane="best" number = "100" from = "112386323#1" to = "1084576181" type="type1"></flow> 
<flow id = "r93" begin="0" end = "500" departLane="best" number = "100" from = "134004339" to = "-333887265#2" type="type1"></flow> 
<flow id = "r94" begin="0" end = "500" departLane="best" number = "100" from = "125472523" to = "143930464#1" type="type1"></flow> 
<flow id = "r95" begin="0" end = "500" departLane="best" number = "100" from = "-662329847" to = "857260871#1" type="type1"></flow> 
<flow id = "r96" begin="0" end = "500" departLane="best" number = "100" from = "-124190277#3" to = "313751276#2" type="type1"></flow> 
<flow id = "r97" begin="0" end = "500" departLane="best" number = "100" from = "191355187" to = "-101619135#1" type="type1"></flow> 
<flow id = "r98" begin="0" end = "500" departLane="best" number = "100" from = "126679459#1" to = "-311628797#1" type="type1"></flow> 
<flow id = "r99" begin="0" end = "500" departLane="best" number = "100" from = "26410313#2" to = "-219644853" type="type1"></flow> 
<flow id = "r100" begin="0" end = "500" departLane="best" number = "100" from = "-114869078#1" to = "99185983" type="type1"></flow> 
<flow id = "r101" begin="0" end = "500" departLane="best" number = "100" from = "-792880289" to = "844204402" type="type1"></flow> 
<flow id = "r102" begin="0" end = "500" departLane="best" number = "100" from = "120086152" to = "120093639#0" type="type1"></flow> 
<flow id = "r103" begin="0" end = "500" departLane="best" number = "100" from = "-88361315#0" to = "55894520" type="type1"></flow> 
<flow id = "r104" begin="0" end = "500" departLane="best" number = "100" from = "-133531196#1" to = "-126304941#3" type="type1"></flow> 
<flow id = "r105" begin="0" end = "500" departLane="best" number = "100" from = "79801750#11" to = "99185983" type="type1"></flow> 
<flow id = "r106" begin="0" end = "500" departLane="best" number = "100" from = "-17023221#0" to = "-295973417" type="type1"></flow> 
<flow id = "r107" begin="0" end = "500" departLane="best" number = "100" from = "-662329847" to = "-857260884#5" type="type1"></flow> 
<flow id = "r108" begin="0" end = "500" departLane="best" number = "100" from = "112917249" to = "-278033901" type="type1"></flow> 
<flow id = "r109" begin="0" end = "500" departLane="best" number = "100" from = "33284921" to = "-333415297#2" type="type1"></flow> 
<flow id = "r110" begin="0" end = "500" departLane="best" number = "100" from = "-207226597#0" to = "534322514#2" type="type1"></flow> 
<flow id = "r111" begin="0" end = "500" departLane="best" number = "100" from = "578662078#1" to = "-535319386#0" type="type1"></flow> 
<flow id = "r112" begin="0" end = "500" departLane="best" number = "100" from = "13865110" to = "687571023#0" type="type1"></flow> 
<flow id = "r113" begin="0" end = "500" departLane="best" number = "100" from = "87304282#6" to = "-32271342#0" type="type1"></flow> 
<flow id = "r114" begin="0" end = "500" departLane="best" number = "100" from = "33284921" to = "-27625553#5" type="type1"></flow> 
<flow id = "r115" begin="0" end = "500" departLane="best" number = "100" from = "314300035#0" to = "126304935#0" type="type1"></flow> 
<flow id = "r116" begin="0" end = "500" departLane="best" number = "100" from = "306448624#0" to = "313456622#0" type="type1"></flow> 
<flow id = "r117" begin="0" end = "500" departLane="best" number = "100" from = "-3731749#2" to = "815418307#1" type="type1"></flow> 
<flow id = "r118" begin="0" end = "500" departLane="best" number = "100" from = "112386323#1" to = "453537164" type="type1"></flow> 
<flow id = "r119" begin="0" end = "500" departLane="best" number = "100" from = "325489447#3" to = "653739265" type="type1"></flow> 
<flow id = "r120" begin="0" end = "500" departLane="best" number = "100" from = "-27625958#0" to = "295335877" type="type1"></flow> 
<flow id = "r121" begin="0" end = "500" departLane="best" number = "100" from = "-742307325" to = "-3992542#1" type="type1"></flow> 
<flow id = "r122" begin="0" end = "500" departLane="best" number = "100" from = "26410313#2" to = "-25806813#2" type="type1"></flow> 
<flow id = "r123" begin="0" end = "500" departLane="best" number = "100" from = "-3343973#0" to = "446474263#3" type="type1"></flow> 
<flow id = "r124" begin="0" end = "500" departLane="best" number = "100" from = "-3343973#0" to = "-898173946#1" type="type1"></flow> 
<flow id = "r125" begin="0" end = "500" departLane="best" number = "100" from = "125472523" to = "123929457#3" type="type1"></flow> 
<flow id = "r126" begin="0" end = "500" departLane="best" number = "100" from = "3869830#2" to = "86126174" type="type1"></flow> 
<flow id = "r127" begin="0" end = "500" departLane="best" number = "100" from = "578662078#1" to = "916926786#0" type="type1"></flow> 
<flow id = "r128" begin="0" end = "500" departLane="best" number = "100" from = "-207226597#0" to = "134969629#2" type="type1"></flow> 
<flow id = "r129" begin="0" end = "500" departLane="best" number = "100" from = "312047479" to = "8127870" type="type1"></flow> 
<flow id = "r130" begin="0" end = "500" departLane="best" number = "100" from = "-792880289" to = "51156834#0" type="type1"></flow> 
<flow id = "r131" begin="0" end = "500" departLane="best" number = "100" from = "3869830#2" to = "86126172" type="type1"></flow> 
<flow id = "r132" begin="0" end = "500" departLane="best" number = "100" from = "-978148215#1" to = "-840067478" type="type1"></flow> 
<flow id = "r133" begin="0" end = "500" departLane="best" number = "100" from = "309097390#3" to = "22999346#1" type="type1"></flow> 
<flow id = "r134" begin="0" end = "500" departLane="best" number = "100" from = "134004339" to = "23041938#1" type="type1"></flow> 
<flow id = "r135" begin="0" end = "500" departLane="best" number = "100" from = "29545768#2" to = "61785252" type="type1"></flow> 
<flow id = "r136" begin="0" end = "500" departLane="best" number = "100" from = "-103068640#0" to = "-23707007#1" type="type1"></flow> 
<flow id = "r137" begin="0" end = "500" departLane="best" number = "100" from = "134004339" to = "1011831156#0" type="type1"></flow> 
<flow id = "r138" begin="0" end = "500" departLane="best" number = "100" from = "-302138410#0" to = "160918521#9" type="type1"></flow> 
<flow id = "r139" begin="0" end = "500" departLane="best" number = "100" from = "134004339" to = "-25806814" type="type1"></flow> 
<flow id = "r140" begin="0" end = "500" departLane="best" number = "100" from = "813979460" to = "-1136958657" type="type1"></flow> 
<flow id = "r141" begin="0" end = "500" departLane="best" number = "100" from = "-1135073433" to = "-301552210#0" type="type1"></flow> 
<flow id = "r142" begin="0" end = "500" departLane="best" number = "100" from = "3343970#7" to = "446474263#1" type="type1"></flow> 
<flow id = "r143" begin="0" end = "500" departLane="best" number = "100" from = "-1135073433" to = "3450240#2" type="type1"></flow> 
<flow id = "r144" begin="0" end = "500" departLane="best" number = "100" from = "813979460" to = "818790219" type="type1"></flow> 
<flow id = "r145" begin="0" end = "500" departLane="best" number = "100" from = "-120201068#5" to = "340093726#1" type="type1"></flow> 
<flow id = "r146" begin="0" end = "500" departLane="best" number = "100" from = "-662329847" to = "40017749#4" type="type1"></flow> 
<flow id = "r147" begin="0" end = "500" departLane="best" number = "100" from = "-103068640#0" to = "240464639#17" type="type1"></flow> 
<flow id = "r148" begin="0" end = "500" departLane="best" number = "100" from = "-120201068#5" to = "24471499#3" type="type1"></flow> 
<flow id = "r149" begin="0" end = "500" departLane="best" number = "100" from = "26410313#2" to = "701316141#1" type="type1"></flow> 
<flow id = "r150" begin="0" end = "500" departLane="best" number = "100" from = "12374530" to = "33688694#1" type="type1"></flow> 
<flow id = "r151" begin="0" end = "500" departLane="best" number = "100" from = "-17023221#0" to = "301909101#1" type="type1"></flow> 
<flow id = "r152" begin="0" end = "500" departLane="best" number = "100" from = "891216437" to = "13862622#1" type="type1"></flow> 
<flow id = "r153" begin="0" end = "500" departLane="best" number = "100" from = "-662329847" to = "891927668" type="type1"></flow> 
<flow id = "r154" begin="0" end = "500" departLane="best" number = "100" from = "126679459#1" to = "-1154209391" type="type1"></flow> 
<flow id = "r155" begin="0" end = "500" departLane="best" number = "100" from = "-3343973#0" to = "94585449" type="type1"></flow> 
<flow id = "r156" begin="0" end = "500" departLane="best" number = "100" from = "325489447#3" to = "292212880#3" type="type1"></flow> 
<flow id = "r157" begin="0" end = "500" departLane="best" number = "100" from = "191355187" to = "10673268#5" type="type1"></flow> 
<flow id = "r158" begin="0" end = "500" departLane="best" number = "100" from = "-1135073433" to = "340265974" type="type1"></flow> 
<flow id = "r159" begin="0" end = "500" departLane="best" number = "100" from = "89873168" to = "80341409#0" type="type1"></flow> 
<flow id = "r160" begin="0" end = "500" departLane="best" number = "100" from = "608754692#5" to = "-278889622" type="type1"></flow> 
<flow id = "r161" begin="0" end = "500" departLane="best" number = "100" from = "312047479" to = "722950791#8" type="type1"></flow> 
<flow id = "r162" begin="0" end = "500" departLane="best" number = "100" from = "79801751#0" to = "-183267885#0" type="type1"></flow> 
<flow id = "r163" begin="0" end = "500" departLane="best" number = "100" from = "-302138410#0" to = "-765164025" type="type1"></flow> 
<flow id = "r164" begin="0" end = "500" departLane="best" number = "100" from = "-3752553#7" to = "810580964" type="type1"></flow> 
<flow id = "r165" begin="0" end = "500" departLane="best" number = "100" from = "-88361315#0" to = "-129465496" type="type1"></flow> 
<flow id = "r166" begin="0" end = "500" departLane="best" number = "100" from = "13865110" to = "567859681#0" type="type1"></flow> 
<flow id = "r167" begin="0" end = "500" departLane="best" number = "100" from = "112917227#1" to = "819735234#1" type="type1"></flow> 
<flow id = "r168" begin="0" end = "500" departLane="best" number = "100" from = "374339595" to = "294193001#3" type="type1"></flow> 
<flow id = "r169" begin="0" end = "500" departLane="best" number = "100" from = "13865110" to = "314300035#1" type="type1"></flow> 
<flow id = "r170" begin="0" end = "500" departLane="best" number = "100" from = "13865110" to = "313602869#0" type="type1"></flow> 
<flow id = "r171" begin="0" end = "500" departLane="best" number = "100" from = "-124190277#3" to = "314474916" type="type1"></flow> 
<flow id = "r172" begin="0" end = "500" departLane="best" number = "100" from = "191355187" to = "23889534#2" type="type1"></flow> 
<flow id = "r173" begin="0" end = "500" departLane="best" number = "100" from = "29545768#2" to = "-71890307#0" type="type1"></flow> 
<flow id = "r174" begin="0" end = "500" departLane="best" number = "100" from = "312047479" to = "3731766" type="type1"></flow> 
<flow id = "r175" begin="0" end = "500" departLane="best" number = "100" from = "-195761715#0" to = "-26410171" type="type1"></flow> 
<flow id = "r176" begin="0" end = "500" departLane="best" number = "100" from = "24471498#5" to = "722950879#1" type="type1"></flow> 
<flow id = "r177" begin="0" end = "500" departLane="best" number = "100" from = "112917249" to = "-170642832#0" type="type1"></flow> 
<flow id = "r178" begin="0" end = "500" departLane="best" number = "100" from = "325489447#3" to = "9864299#5" type="type1"></flow> 
<flow id = "r179" begin="0" end = "500" departLane="best" number = "100" from = "608754692#5" to = "-282774830#1" type="type1"></flow> 
<flow id = "r180" begin="0" end = "500" departLane="best" number = "100" from = "-61557498#0" to = "123929457#2" type="type1"></flow> 
<flow id = "r181" begin="0" end = "500" departLane="best" number = "100" from = "608754692#5" to = "-250646147" type="type1"></flow> 
<flow id = "r182" begin="0" end = "500" departLane="best" number = "100" from = "-103068640#0" to = "279571554#5" type="type1"></flow> 
<flow id = "r183" begin="0" end = "500" departLane="best" number = "100" from = "374339595" to = "-14969877#2" type="type1"></flow> 
<flow id = "r184" begin="0" end = "500" departLane="best" number = "100" from = "-662329847" to = "588724723" type="type1"></flow> 
<flow id = "r185" begin="0" end = "500" departLane="best" number = "100" from = "-88361315#0" to = "-695974353#0" type="type1"></flow> 
<flow id = "r186" begin="0" end = "500" departLane="best" number = "100" from = "301992138#1" to = "12707021#4" type="type1"></flow> 
<flow id = "r187" begin="0" end = "500" departLane="best" number = "100" from = "4000691" to = "542834823" type="type1"></flow> 
<flow id = "r188" begin="0" end = "500" departLane="best" number = "100" from = "-662329847" to = "695795460" type="type1"></flow> 
<flow id = "r189" begin="0" end = "500" departLane="best" number = "100" from = "24471498#5" to = "-694994271#2" type="type1"></flow> 
<flow id = "r190" begin="0" end = "500" departLane="best" number = "100" from = "-61557498#0" to = "189453010#1" type="type1"></flow> 
<flow id = "r191" begin="0" end = "500" departLane="best" number = "100" from = "33284921" to = "965198103#0" type="type1"></flow> 
<flow id = "r192" begin="0" end = "500" departLane="best" number = "100" from = "33284921" to = "192359888#1" type="type1"></flow> 
<flow id = "r193" begin="0" end = "500" departLane="best" number = "100" from = "125472523" to = "27678757#4" type="type1"></flow> 
<flow id = "r194" begin="0" end = "500" departLane="best" number = "100" from = "306448624#0" to = "1014184563#3" type="type1"></flow> 
<flow id = "r195" begin="0" end = "500" departLane="best" number = "100" from = "-916926786#3" to = "-18132176#3" type="type1"></flow> 
<flow id = "r196" begin="0" end = "500" departLane="best" number = "100" from = "309097390#3" to = "-52332439#1" type="type1"></flow> 
<flow id = "r197" begin="0" end = "500" departLane="best" number = "100" from = "125472523" to = "818431298#1" type="type1"></flow> 
<flow id = "r198" begin="0" end = "500" departLane="best" number = "100" from = "112917249" to = "15081945#3" type="type1"></flow> 
<flow id = "r199" begin="0" end = "500" departLane="best" number = "100" from = "891216437" to = "318598417#3" type="type1"></flow> 
<flow id = "r200" begin="0" end = "500" departLane="best" number = "100" from = "79801751#0" to = "-93337266" type="type1"></flow> 
<flow id = "r201" begin="0" end = "500" departLane="best" number = "100" from = "813979460" to = "-129129414#0" type="type1"></flow> 
<flow id = "r202" begin="0" end = "500" departLane="best" number = "100" from = "-662329847" to = "40403656#5" type="type1"></flow> 
<flow id = "r203" begin="0" end = "500" departLane="best" number = "100" from = "-27625958#0" to = "69717160" type="type1"></flow> 
<flow id = "r204" begin="0" end = "500" departLane="best" number = "100" from = "-103068640#0" to = "-23889538#9" type="type1"></flow> 
<flow id = "r205" begin="0" end = "500" departLane="best" number = "100" from = "-120201068#5" to = "-3450551#1" type="type1"></flow> 
<flow id = "r206" begin="0" end = "500" departLane="best" number = "100" from = "-916926786#3" to = "768487847#1" type="type1"></flow> 
<flow id = "r207" begin="0" end = "500" departLane="best" number = "100" from = "29545768#2" to = "-149115984#1" type="type1"></flow> 
<flow id = "r208" begin="0" end = "500" departLane="best" number = "100" from = "-3343973#0" to = "-891578009" type="type1"></flow> 
<flow id = "r209" begin="0" end = "500" departLane="best" number = "100" from = "314300035#0" to = "313724966#1" type="type1"></flow> 
<flow id = "r210" begin="0" end = "500" departLane="best" number = "100" from = "-1135073433" to = "941557795#1" type="type1"></flow> 
<flow id = "r211" begin="0" end = "500" departLane="best" number = "100" from = "24471498#5" to = "3731761#6" type="type1"></flow> 
<flow id = "r212" begin="0" end = "500" departLane="best" number = "100" from = "-61557498#0" to = "541535468#1" type="type1"></flow> 
<flow id = "r213" begin="0" end = "500" departLane="best" number = "100" from = "112917227#1" to = "-278039701" type="type1"></flow> 
<flow id = "r214" begin="0" end = "500" departLane="best" number = "100" from = "301992138#1" to = "85801366#4" type="type1"></flow> 
<flow id = "r215" begin="0" end = "500" departLane="best" number = "100" from = "-114869078#1" to = "-414763952" type="type1"></flow> 
<flow id = "r216" begin="0" end = "500" departLane="best" number = "100" from = "26410313#2" to = "-219644856#0" type="type1"></flow> 
<flow id = "r217" begin="0" end = "500" departLane="best" number = "100" from = "13865110" to = "-147856946#1" type="type1"></flow> 
<flow id = "r218" begin="0" end = "500" departLane="best" number = "100" from = "325489447#3" to = "13862622#1" type="type1"></flow> 
<flow id = "r219" begin="0" end = "500" departLane="best" number = "100" from = "24471498#5" to = "722950797#5" type="type1"></flow> 
<flow id = "r220" begin="0" end = "500" departLane="best" number = "100" from = "-61557498#0" to = "28982355#5" type="type1"></flow> 
<flow id = "r221" begin="0" end = "500" departLane="best" number = "100" from = "-742307325" to = "11256344#1" type="type1"></flow> 
<flow id = "r222" begin="0" end = "500" departLane="best" number = "100" from = "-61557498#0" to = "205405882#0" type="type1"></flow> 
<flow id = "r223" begin="0" end = "500" departLane="best" number = "100" from = "314300035#0" to = "932392823#1" type="type1"></flow> 