<?xml version="1.0" encoding="UTF-8"?> <routes> <vType id="veh_passenger" vClass="passenger" /><vehicle id="r0" type="veh_passenger" depart="0"> <route edges="134004339 26410169#1 26410169#2 26410169#3 26410169#4 26410169#6 "/> </vehicle>  
<vehicle id="r1" type="veh_passenger" depart="0"> <route edges="578662078#1 -16767290 3343975#0 3343975#1 3343975#3 3343975#4 3343975#5 3343975#6 896195847 3343969#2 3343969#3 3343969#4 3343969#5 3343970#6 3343970#7 3343970#0 3343970#1 371242778#0 -893949660 -893949656#0 893949664#1 "/> </vehicle>  
<vehicle id="r2" type="veh_passenger" depart="0"> <route edges="813979460 -813979460 -578662087#0 -123929657#3 -123929657#2 843033248#0 843033248#1 843033248#2 126348340#1 126348340#2 843033247 439142855#0 439142855#1 86249595#0 86249595#1 86249608 86249599 -86249599 "/> </vehicle>  
<vehicle id="r3" type="veh_passenger" depart="0"> <route edges="-124190277#3 -124190277#2 510790349#0 -304242025#0 318825610#1 13883887#1 121850702#0 13883888#1 30771385 121850710 23041397#1 23041397#2 23041397#3 23041397#4 23041397#5 "/> </vehicle>  
<vehicle id="r4" type="veh_passenger" depart="0"> <route edges="813979460 -813979460 521257400#1 3424505#1 3424505#2 3424505#3 3424505#4 3424505#5 3424505#6 3424505#7 3424505#8 3424505#9 3424505#10 3424505#11 3424505#12 3424505#13 192658997#1 192658997#2 192658997#4 72612251#0 72612251#1 -330915329 "/> </vehicle>  
<vehicle id="r5" type="veh_passenger" depart="0"> <route edges="-207226597#0 -3752541 -192559606#3 -192559606#2 -192559606#1 -192559606#0 -16771605#10 -16771605#9 -16771605#8 -16771605#7 -16771605#6 -16771605#5 -16771605#4 -16771605#3 -16771605#2 -16771605#1 -16771605#0 -608715510#0 -264864067 968811658 23832344 351276443#1 192659010 85044935#0 3390192 461159346 325166039#0 325166039#2 325166039#3 461159351 3390197#0 3390197#1 3390197#3 3390197#4 3390197#5 -3390199#5 -3390199#4 "/> </vehicle>  
<vehicle id="r6" type="veh_passenger" depart="0"> <route edges="79801750#11 92676009#4 92676009#5 11064175#22 11064175#23 11064175#24 11064175#25 11064175#26 231212168#23 231212168#24 231212168#25 231212168#26 11064172#5 11064172#6 11064172#8 11064172#9 10575879#0 -89687973 90638335#3 90638335#5 90638335#6 90638335#7 90638335#8 90638335#9 90638335#10 90638335#11 -90638335#25 -90638335#24 -90638335#23 -90638335#21 -90638335#19 -90638335#18 -90638335#17 -90638335#16 -90638335#15 90638331 -263756793 145611539#0 145611539#1 145611539#2 -93337266 -517538538 -16383222#0 -1060353697#0 -1060546848 -290745698#1 -290745698#0 -16383581 -11995800 -119494911#2 -119494911#1 -119494911#0 -9923877#1 -9923877#0 -419034241#1 -409118865#1 -409118865#0 409118860 409118862#2 432342523 -409119406#5 409119406#5 "/> </vehicle>  
<vehicle id="r7" type="veh_passenger" depart="0"> <route edges="79801750#11 92676009#4 92676009#5 11064175#22 11064175#23 11064175#24 11064175#25 11064175#26 1084279279#1 92514143#1 1084279279#4 1084279279#5 1084279279#6 1084279279#7 1084279279#8 1084279279#9 1084279279#10 1084279279#11 1084279279#12 1084279279#13 1084279279#14 1084279279#15 1084279279#16 1084279279#17 1084279279#18 1084279279#19 1084279279#20 1084279279#21 11064178#0 11064178#1 11064178#2 11064178#3 231212171#1 79801752#0 79801752#1 -1228851397#1 350992061 3373099#0 232889405#1 15886222#0 797685357 797685359 797685358#1 -23157554#2 -23157554#1 -23157554#0 3869806#0 3869806#1 3869806#2 5108912#1 8083282#0 8083282#2 199325322#1 199325322#2 199325322#4 3992440#0 3992440#1 3992440#2 1210035291 -364819994#1 -364819994#0 20274129 119490052 268835765#0 268835765#1 268835765#2 73537829#0 -23237802#4 -23237802#3 "/> </vehicle>  
<vehicle id="r8" type="veh_passenger" depart="0"> <route edges="-207226597#0 -3752541 -192559606#3 -192559606#2 -192559606#1 -192559606#0 -16771605#10 -16771605#9 -16771605#8 -16771605#7 -16771605#6 -16771605#5 -16771605#4 -16771605#3 -16771605#2 -16771605#1 -16771605#0 -608715510#0 -264864067 968811658 23832344 351276441#1 -3424507#3 -3424507#2 -3424507#1 -3424507#0 -3677333#1 83917588#1 256637760#0 256637760#1 256637760#2 843261108 4009882#8 -202745273#0 8131988#0 8131988#1 8131988#2 -8131995 -499158420 3424513 8129152 64487855#0 64487855#1 -917106784 917106781#1 1114905864 85840924 326826779#1 326826788#1 326826788#2 326826788#3 326826788#4 326826788#5 326826788#6 326826788#7 326826788#9 23237289 23104292 120201111#1 616383046#1 4009887#1 8131996#0 "/> </vehicle>  
<vehicle id="r9" type="veh_passenger" depart="0"> <route edges="-88361315#0 88361315#0 88361315#1 -103559274#1 -103559274#0 174338457#0 174338457#1 429706866 1229904661 3677944#0 1229904660#2 174338458#0 174338458#1 174338458#3 174338458#4 97175693#0 97175693#1 813979463#0 659297693 521257400#1 813979468 123929644#0 123929644#1 123929644#2 123929644#3 578662082#1 578662081#1 578662081#2 578662081#3 609991297 1222601059 192559630#0 608916197#1 -8129166#1 -8129166#0 -192559609#0 -8129165#2 1017412661 3731759 8129164#0 8129164#1 8129164#2 "/> </vehicle>  
<vehicle id="r10" type="veh_passenger" depart="0"> <route edges="26410313#2 -25933419#5 -25933419#2 -25933419#1 -25933419#0 25933421#0 25933421#1 25933421#2 25933421#3 10155462#4 10155462#1 -25933426#1 -25933426#0 3876851#3 3876851#4 337406053#5 337406053#6 622063652#2 -337434145#0 337406071#3 -337406025 -337406071#1 -337406071#0 337406071#0 "/> </vehicle>  
<vehicle id="r11" type="veh_passenger" depart="0"> <route edges="-133531196#1 133531196#1 -9900007#2 -9900007#1 -9900007#0 -143210332#2 -143210332#1 -143210332#0 125835626#1 -53203693#1 -709295035#0 147856952#1 -508197989#4 -508197989#3 -508197989#0 "/> </vehicle>  
<vehicle id="r12" type="veh_passenger" depart="0"> <route edges="-61557498#0 3358673 123929547#0 123929547#1 123929547#2 1066053511 1085544572 147856945#0 147856945#1 -292056889#0 -89557186#4 -89557186#3 -89557186#2 687571016 -687571016 "/> </vehicle>  
<vehicle id="r13" type="veh_passenger" depart="0"> <route edges="301992138#1 301992138#2 -812429903 812429903 -301992138#2 -301992138#1 -301992138#0 -301909099#2 -301909099#1 -301909099#0 3358660 301992140#1 301992140#2 301992140#4 301992140#5 301992140#6 301992140#7 301992140#8 301992140#9 19568040#1 19568040#3 19568040#4 19568040#5 19568040#6 19568040#7 19568040#12 3372474#2 85798768#2 85798768#3 301636908#1 301636908#2 119616739 317846810#1 317846810#2 317846810#3 317846810#4 -192659001#7 3701206#0 3701206#1 3701206#2 3701206#3 3701206#4 3701206#5 3701206#6 3701206#7 3701206#9 3701206#10 3701206#11 3701206#12 3701205#0 3701205#1 3701205#2 3701205#3 3701205#4 3701205#5 3701205#6 3701205#8 3701205#9 3701205#10 3701205#11 3701205#12 3701205#13 3701205#14 3701205#15 3701205#16 3701205#17 3701205#18 3701205#19 3701205#20 3701205#21 3701205#22 3701205#23 3701205#24 3701205#25 463634003#0 463634003#1 463634003#2 463634003#3 463634003#4 463634003#5 463634003#6 463634003#8 463634003#9 463634003#10 463634003#11 463634003#12 463634003#13 463634003#14 3996948#0 3996948#1 3996948#2 3996948#3 3996948#4 3996948#5 3996948#6 3996948#7 -3996947#3 "/> </vehicle>  
<vehicle id="r14" type="veh_passenger" depart="0"> <route edges="312047479 -516612465 516401740#1 -86312159#1 -86312159#0 -23237294 3999752#0 3999752#1 104622444 4003919#0 4003919#1 4003919#2 77453620 72856795 77864399 177322355 3373675 77864405 86614478#1 86614478#2 -3996959 257483983#0 257483983#1 257483983#2 -607917128#0 301636909#2 -264061319#0 264061319#0 "/> </vehicle>  
<vehicle id="r15" type="veh_passenger" depart="0"> <route edges="3869830#2 8127969#2 8127969#3 123929547#0 123929547#1 123929547#2 1066053511 1085544572 147856945#0 147856945#1 147856945#6 147856945#7 147856945#8 147856945#9 147856945#10 147856945#11 147856945#12 -284664272#5 -284664272#4 -284664272#3 -284664272#2 -284664272#0 -608715544 622063669#2 -438252643#2 125835563#2 -13865507#2 -13865507#1 -13865507#0 292233691#0 292233691#1 -33922915 "/> </vehicle>  
<vehicle id="r16" type="veh_passenger" depart="0"> <route edges="-39682324 39682324 -37713149#0 -1155226687 -377918607 -351000218#1 3869809#0 3869809#2 345381438#0 345381438#1 345381438#2 -761467408#1 947657650#1 -26831233#0 795404463#2 1049133138 165498333#0 1069373380 1069373384#1 1069373381 1069373383#2 "/> </vehicle>  
<vehicle id="r17" type="veh_passenger" depart="0"> <route edges="-3731749#2 -3731749#1 100833388#0 -3731754 -8129164#0 -3731759 -1017412661 8129165#2 3731761#9 8129166#0 8129166#1 -608916196#0 130861474#0 "/> </vehicle>  
<vehicle id="r18" type="veh_passenger" depart="0"> <route edges="4000691 -192659005#0 -9262165 89022063 14038032 99416797#0 99416797#1 102139630 24355240 192659017#0 192659017#1 192659017#2 832174484 99416782#0 99416782#1 963637846 -9387961#3 -9387961#2 -9387961#1 -9387961#0 -14959925#0 340093684#5 14960929#2 "/> </vehicle>  
<vehicle id="r19" type="veh_passenger" depart="0"> <route edges="-792880289 792880289 -617622615#1 -617622615#0 -113997729#0 -301615094#14 -301615094#13 -301615094#12 -301615094#11 -301615094#7 -301615094#5 -301615094#4 -301615094#3 -301615094#2 -301615094#1 -301615094#0 -124042417 -304050774#0 -79002196#2 -79002196#0 23157748#1 23157748#2 23157748#3 -114869077 -773642168#0 -773642169 -1172748588#0 -306703048#2 8117006#0 8117006#1 8117006#2 8117006#3 -432342522#1 -432342522#0 -432342523 -409118862#2 -409118860 409118865#0 -409118868#13 -409118868#12 -409118868#10 -409118868#8 -409118868#6 -409118868#3 -409118868#2 "/> </vehicle>  
<vehicle id="r20" type="veh_passenger" depart="0"> <route edges="12374530 125835501#10 429571921 -125835568#1 -23707244 125835524#0 663770965#0 663770966#1 584356749 198559166#1 584356742 451873774#0 451873774#1 76867049 459446600 "/> </vehicle>  
<vehicle id="r21" type="veh_passenger" depart="0"> <route edges="-114869078#1 5108912#1 114869079 79801753#0 79801753#1 -51156834#6 -93203081 -51156834#4 -51156834#3 -51156834#2 -51156834#1 -51156834#0 -51156835#6 93203082 "/> </vehicle>  
<vehicle id="r22" type="veh_passenger" depart="0"> <route edges="-792880289 792880289 -617622615#1 -617622615#0 -113997729#0 -301615094#14 -301615094#13 -301615094#12 -301615094#11 -11615002#1 -11615002#0 141114449 5109036#0 141114452#2 141114452#3 141114452#5 141114452#6 141114452#8 141114452#9 141114452#10 141114452#14 141114452#16 5109036#14 284251318#5 284251318#7 284251318#8 284251318#9 284251318#10 284251318#11 -1090768814#1 1090768814#1 -284251318#11 "/> </vehicle>  
<vehicle id="r23" type="veh_passenger" depart="0"> <route edges="374339595 -330300725#0 -3869822 -330300723 659297690 25928482#0 25928482#1 1231875369#0 1231875369#1 3869812#1 3869812#2 3869812#3 3869812#4 3869812#5 305316104#0 304242019#0 304242019#1 304242019#3 337406039 337406060 -337406071#7 337406071#7 "/> </vehicle>  
<vehicle id="r24" type="veh_passenger" depart="0"> <route edges="87304282#6 541467951#1 541467951#2 541467950#0 126304967#5 126304967#6 154927950#1 154927950#2 622063631 458555385 "/> </vehicle>  
<vehicle id="r25" type="veh_passenger" depart="0"> <route edges="126679459#1 10155837#0 534322509#0 -534322511#2 -534322511#1 539817286 21550900#1 "/> </vehicle>  
<vehicle id="r26" type="veh_passenger" depart="0"> <route edges="-103068640#0 688347305#5 -23889534#5 -23889534#4 -23889534#3 -460383204 -32271352#1 -32271352#0 "/> </vehicle>  
<vehicle id="r27" type="veh_passenger" depart="0"> <route edges="134004339 26410169#1 26410169#2 26410169#3 26410169#4 25933419#0 25933419#1 25933419#2 25933419#5 "/> </vehicle>  
<vehicle id="r28" type="veh_passenger" depart="0"> <route edges="134004339 -134004339 -25933423#1 -25933423#0 -25806802 3876851#0 3876851#1 3876851#2 3876851#3 3876851#4 337406053#5 337406053#6 622063652#2 337406053#8 337758979#0 "/> </vehicle>  
<vehicle id="r29" type="veh_passenger" depart="0"> <route edges="-133531196#1 133531196#1 -9900007#2 -9900007#1 -9900007#0 -143210332#2 -143210332#1 -143210332#0 -1053665851#1 199586553#1 700793854 -130786744 130786745#0 192559630#0 608916197#1 192559632 608916191#1 99346752 430072706 99346745#0 99346745#1 99346745#2 99346754#1 99346749 192559631#0 93647802#0 93647798#1 340093677 10276448 "/> </vehicle>  
<vehicle id="r30" type="veh_passenger" depart="0"> <route edges="-742307325 10682374#1 -10682374#1 1088246738#1 742307329 742307327#1 86203360#0 -344505059 -344505060 -86203341#0 742307328#1 80341408#0 16767288#1 80341410 79940705#0 79940705#1 79940705#2 79940705#3 -206371303 206371303 "/> </vehicle>  
<vehicle id="r31" type="veh_passenger" depart="0"> <route edges="-133531196#1 133531196#1 -9900007#2 -9900007#1 -9900007#0 -143210332#2 -143210332#1 -143210332#0 125835626#1 -53203693#1 -709295035#0 147856952#1 -508197989#4 -508197989#3 -508197989#0 815418310 572469211#1 "/> </vehicle>  
<vehicle id="r32" type="veh_passenger" depart="0"> <route edges="374339595 330300725#1 -843534478#1 -314635787#2 -314635787#1 -314635787#0 510790349#0 3992548#2 254800931 62268125 263138305#0 44932918#0 -23041588#0 -304556798#2 -304556798#1 133801081#1 133801081#2 429571927#0 429571927#1 952031457 4884715 80221433 80221435 -80221429 80220984 55068088 "/> </vehicle>  
<vehicle id="r33" type="veh_passenger" depart="0"> <route edges="3869830#2 -8127969#1 3390189 3390193 126348340#2 843033247 439142855#0 -814577202 "/> </vehicle>  
<vehicle id="r34" type="veh_passenger" depart="0"> <route edges="24471498#5 696009881 226914380#1 226914380#2 226914380#3 696009880#1 696009882#1 -3390205#0 -85840893#1 88059156 694962927 -694994272 -694994271#2 -694994271#1 -694994271#0 694962929 -694962954 -27063965#0 24471494#2 24471494#3 24471494#4 24471494#5 24471494#6 3752565#0 3752565#1 3752565#2 -608715598#5 -608715598#4 -608715598#3 -608715598#2 -608715598#0 -608715568#2 -608715568#1 -608715568#0 -608715566 -439142857#3 -439142857#2 -174886292 -655251291 -120125393#3 -70789595#1 -70789595#0 120093639#2 564392134#0 564392134#1 564392134#2 564392134#3 941557795#0 941557795#1 1114905862#1 564392135#0 564392135#2 941557795#5 941557795#6 301636909#1 607917128#0 -257483983#2 -257483983#1 -257483983#0 "/> </vehicle>  
<vehicle id="r35" type="veh_passenger" depart="0"> <route edges="-39682324 39682324 -37713149#0 -1155226687 -377918607 -351000218#1 3869809#0 3869809#2 345381438#0 345381438#1 345381438#2 -761467408#1 947657650#1 -26831233#0 795404463#2 -702132492#0 -198676304 -198676305#1 -198676305#0 165498335#0 165498328#1 165498329#1 311042987 -311042988 -311042986 -26830469#1 26830469#1 -171829305#0 "/> </vehicle>  
<vehicle id="r36" type="veh_passenger" depart="0"> <route edges="112917227#1 23707241 23889538#0 23889538#1 23889538#2 23889538#3 23889538#4 23889538#5 23889538#6 23889538#7 23889538#9 23889538#10 23889538#13 23889538#14 23889539 23889538#16 23889538#17 23889538#18 70729132 295970674#0 295970674#1 -87240828 -126304949#3 -542249303#1 -542249303#0 542249303#0 "/> </vehicle>  
<vehicle id="r37" type="veh_passenger" depart="0"> <route edges="-124190277#3 -124190277#2 510790349#0 3992548#2 254800931 62268125 263138305#0 44932918#0 -23041588#0 -304556798#2 -304556798#1 133801081#1 133801081#2 -316395269#2 -38542472#3 -38542472#2 14970742#0 14970742#1 -317384376#2 -317384376#1 317384376#1 "/> </vehicle>  
<vehicle id="r38" type="veh_passenger" depart="0"> <route edges="301992138#1 301992138#2 301992138#4 301992138#5 301992138#6 301992138#7 301992138#8 301992138#9 301992138#10 301992138#11 301992138#12 301992138#13 301992138#14 301992138#15 301992138#16 301992138#17 301992138#18 301992138#19 301992138#20 301992138#21 301992138#22 301992138#23 301992138#27 301992138#29 301992138#30 301992138#32 301615045 -79299308 -85798761 -23121879 -23157748#2 -23157748#1 -23157748#0 79002196#1 3701209 304050774#1 301615094#0 301615094#1 301615094#2 301615094#3 301615094#4 -780878241 780878241 "/> </vehicle>  
<vehicle id="r39" type="veh_passenger" depart="0"> <route edges="-27625958#0 -1052752215#1 -521257409#6 -521257409#5 -521257409#4 -521257409#2 -521257409#0 -24905455#6 -24905455#5 -24905455#4 -24905455#3 -24905455#2 27566528#1 -27566528#1 "/> </vehicle>  
<vehicle id="r40" type="veh_passenger" depart="0"> <route edges="-916926786#3 27471361#1 120657762#3 670002675 586268891#1 898173878 16775050#0 16775050#1 16775050#2 670002670#0 670002670#1 670002670#2 446474262 198558677#1 198558677#2 198558676 129212840#0 3991620#1 "/> </vehicle>  
<vehicle id="r41" type="veh_passenger" depart="0"> <route edges="8127688#0 -8127688#0 3358662#2 -23119710 120086152 23119517#3 956394173#1 956394172#0 956394172#1 -23000038 "/> </vehicle>  
<vehicle id="r42" type="veh_passenger" depart="0"> <route edges="112386323#1 -112386323#1 -10362550#0 -440732694 -440732695 -112566011#1 -112565988 112566019#2 -149116016 149116020#1 149116020#2 149116006 -17512990#1 -23950567 -296200206 23957018#0 23957018#1 -23957017#0 -17974347 23950553 -23957046 -22476098 -179193411 179193441 38212420#1 "/> </vehicle>  
<vehicle id="r43" type="veh_passenger" depart="0"> <route edges="813979460 -813979460 -578662087#0 -123929657#3 -123929657#2 843033248#0 843033248#1 843033248#2 126348340#1 126348340#2 843033247 439142855#0 439142855#1 86249595#0 86249595#1 86249595#2 "/> </vehicle>  
<vehicle id="r44" type="veh_passenger" depart="0"> <route edges="125472523 -8302412#0 3390203 125472517#0 125472517#1 125472517#2 3450250 3390201 27022062#0 27022062#1 27022062#2 -27062245#4 -27062245#2 -27062245#1 -27062245#0 27062244#0 27062244#2 461159369#3 461159369#4 461159369#5 461159369#6 455505594 "/> </vehicle>  
<vehicle id="r45" type="veh_passenger" depart="0"> <route edges="-916926786#3 27471361#1 120657762#3 670002675 586268891#1 71745449 898173885#1 -664254406 311526076 "/> </vehicle>  
<vehicle id="r46" type="veh_passenger" depart="0"> <route edges="79801751#0 -90634070#1 -90634070#0 231212167#1 201543745 201543749#0 201543749#1 1057646220 232889405#1 15886222#0 797685357 797685359 797685358#1 -23157554#2 -23157554#1 -23157554#0 3869806#0 3869806#1 3869806#2 5108912#1 8083282#0 8083282#2 199325322#1 199325322#2 199325322#4 3992440#0 3992440#1 3992440#2 1210035291 -364819994#1 -364819994#0 20274129 119490052 268835765#0 268835765#1 268835765#2 -25093894 -120515600 -73537703 -222338142#2 -222338142#1 -222338142#0 -874830771#1 "/> </vehicle>  
<vehicle id="r47" type="veh_passenger" depart="0"> <route edges="112386323#1 -112386323#1 -10362550#0 -440732694 -440732695 -112566011#1 -112565988 112566019#2 -149116016 149116020#1 149116020#2 149116006 -17512990#1 -23950567 -296200206 23957018#0 23957018#1 -23957017#0 -12372940#1 -12372940#0 23950551 23950549 -23950464 "/> </vehicle>  
<vehicle id="r48" type="veh_passenger" depart="0"> <route edges="-3731749#2 -3731749#1 100833388#0 -3731754 -8129164#0 -3731759 -1017412661 8129165#2 3731761#9 8129166#0 8129166#1 -608916196#0 8129999#0 -130861473#1 -609991297 -578662081#3 -578662081#2 -578662081#1 -578662081#0 -578662079 -123929644#2 -123929644#1 986600728 "/> </vehicle>  
<vehicle id="r49" type="veh_passenger" depart="0"> <route edges="26410313#2 -25933419#5 -25933419#2 -25933419#1 -25933419#0 25933421#0 25933421#1 25933421#2 25933421#3 10155462#4 10155462#1 -25933426#1 -25933426#0 3876851#3 3876851#4 337406053#5 337406053#6 622063652#2 337406053#8 26830584#0 "/> </vehicle>  
<vehicle id="c0" type="veh_passenger" depart="0"> <route edges="134004339 26410169#1 26410169#2 26410169#3 26410169#4 26410169#6 "/> </vehicle>  
<vehicle id="c1" type="veh_passenger" depart="0"> <route edges="578662078#1 -16767290 3343975#0 3343975#1 3343975#3 3343975#4 3343975#5 3343975#6 896195847 3343969#2 3343969#3 3343969#4 3343969#5 3343970#6 3343970#7 3343970#0 3343970#1 371242778#0 -893949660 -893949656#0 893949664#1 "/> </vehicle>  
<vehicle id="c2" type="veh_passenger" depart="0"> <route edges="813979460 -813979460 -578662087#0 -123929657#3 -123929657#2 843033248#0 843033248#1 843033248#2 126348340#1 126348340#2 843033247 439142855#0 439142855#1 86249595#0 86249595#1 86249608 86249599 -86249599 "/> </vehicle>  
<vehicle id="c3" type="veh_passenger" depart="0"> <route edges="-124190277#3 -124190277#2 510790349#0 -304242025#0 318825610#1 13883887#1 121850702#0 13883888#1 30771385 121850710 23041397#1 23041397#2 23041397#3 23041397#4 23041397#5 "/> </vehicle>  
<vehicle id="c4" type="veh_passenger" depart="0"> <route edges="813979460 -813979460 521257400#1 3424505#1 3424505#2 3424505#3 3424505#4 3424505#5 3424505#6 3424505#7 3424505#8 3424505#9 3424505#10 3424505#11 3424505#12 3424505#13 192658997#1 192658997#2 192658997#4 72612251#0 72612251#1 -330915329 "/> </vehicle>  
<vehicle id="c5" type="veh_passenger" depart="0"> <route edges="-207226597#0 -3752541 -192559606#3 -192559606#2 -192559606#1 -192559606#0 -16771605#10 -16771605#9 -16771605#8 -16771605#7 -16771605#6 -16771605#5 -16771605#4 -16771605#3 -16771605#2 -16771605#1 -16771605#0 -608715510#0 -264864067 968811658 23832344 351276443#1 192659010 85044935#0 3390192 461159346 325166039#0 325166039#2 325166039#3 461159351 3390197#0 3390197#1 3390197#3 3390197#4 3390197#5 -3390199#5 -3390199#4 "/> </vehicle>  
<vehicle id="c6" type="veh_passenger" depart="0"> <route edges="79801750#11 92676009#4 92676009#5 11064175#22 11064175#23 11064175#24 11064175#25 11064175#26 231212168#23 231212168#24 231212168#25 231212168#26 11064172#5 11064172#6 11064172#8 11064172#9 10575879#0 -89687973 90638335#3 90638335#5 90638335#6 90638335#7 90638335#8 90638335#9 90638335#10 90638335#11 -90638335#25 -90638335#24 -90638335#23 -90638335#21 -90638335#19 -90638335#18 -90638335#17 -90638335#16 -90638335#15 90638331 -263756793 145611539#0 145611539#1 145611539#2 -93337266 -517538538 -16383222#0 -1060353697#0 -1060546848 -290745698#1 -290745698#0 -16383581 -11995800 -119494911#2 -119494911#1 -119494911#0 -9923877#1 -9923877#0 -419034241#1 -409118865#1 -409118865#0 409118860 409118862#2 432342523 -409119406#5 409119406#5 "/> </vehicle>  
<vehicle id="c7" type="veh_passenger" depart="0"> <route edges="79801750#11 92676009#4 92676009#5 11064175#22 11064175#23 11064175#24 11064175#25 11064175#26 1084279279#1 92514143#1 1084279279#4 1084279279#5 1084279279#6 1084279279#7 1084279279#8 1084279279#9 1084279279#10 1084279279#11 1084279279#12 1084279279#13 1084279279#14 1084279279#15 1084279279#16 1084279279#17 1084279279#18 1084279279#19 1084279279#20 1084279279#21 11064178#0 11064178#1 11064178#2 11064178#3 231212171#1 79801752#0 79801752#1 -1228851397#1 350992061 3373099#0 232889405#1 15886222#0 797685357 797685359 797685358#1 -23157554#2 -23157554#1 -23157554#0 3869806#0 3869806#1 3869806#2 5108912#1 8083282#0 8083282#2 199325322#1 199325322#2 199325322#4 3992440#0 3992440#1 3992440#2 1210035291 -364819994#1 -364819994#0 20274129 119490052 268835765#0 268835765#1 268835765#2 73537829#0 -23237802#4 -23237802#3 "/> </vehicle>  
<vehicle id="c8" type="veh_passenger" depart="0"> <route edges="-207226597#0 -3752541 -192559606#3 -192559606#2 -192559606#1 -192559606#0 -16771605#10 -16771605#9 -16771605#8 -16771605#7 -16771605#6 -16771605#5 -16771605#4 -16771605#3 -16771605#2 -16771605#1 -16771605#0 -608715510#0 -264864067 968811658 23832344 351276441#1 -3424507#3 -3424507#2 -3424507#1 -3424507#0 -3677333#1 83917588#1 256637760#0 256637760#1 256637760#2 843261108 4009882#8 -202745273#0 8131988#0 8131988#1 8131988#2 -8131995 -499158420 3424513 8129152 64487855#0 64487855#1 -917106784 917106781#1 1114905864 85840924 326826779#1 326826788#1 326826788#2 326826788#3 326826788#4 326826788#5 326826788#6 326826788#7 326826788#9 23237289 23104292 120201111#1 616383046#1 4009887#1 8131996#0 "/> </vehicle>  
<vehicle id="c9" type="veh_passenger" depart="0"> <route edges="-88361315#0 88361315#0 88361315#1 -103559274#1 -103559274#0 174338457#0 174338457#1 429706866 1229904661 3677944#0 1229904660#2 174338458#0 174338458#1 174338458#3 174338458#4 97175693#0 97175693#1 813979463#0 659297693 521257400#1 813979468 123929644#0 123929644#1 123929644#2 123929644#3 578662082#1 578662081#1 578662081#2 578662081#3 609991297 1222601059 192559630#0 608916197#1 -8129166#1 -8129166#0 -192559609#0 -8129165#2 1017412661 3731759 8129164#0 8129164#1 8129164#2 "/> </vehicle>  
<vehicle id="c10" type="veh_passenger" depart="0"> <route edges="26410313#2 -25933419#5 -25933419#2 -25933419#1 -25933419#0 25933421#0 25933421#1 25933421#2 25933421#3 10155462#4 10155462#1 -25933426#1 -25933426#0 3876851#3 3876851#4 337406053#5 337406053#6 622063652#2 -337434145#0 337406071#3 -337406025 -337406071#1 -337406071#0 337406071#0 "/> </vehicle>  
<vehicle id="c11" type="veh_passenger" depart="0"> <route edges="-133531196#1 133531196#1 -9900007#2 -9900007#1 -9900007#0 -143210332#2 -143210332#1 -143210332#0 125835626#1 -53203693#1 -709295035#0 147856952#1 -508197989#4 -508197989#3 -508197989#0 "/> </vehicle>  
<vehicle id="c12" type="veh_passenger" depart="0"> <route edges="-61557498#0 3358673 123929547#0 123929547#1 123929547#2 1066053511 1085544572 147856945#0 147856945#1 -292056889#0 -89557186#4 -89557186#3 -89557186#2 687571016 -687571016 "/> </vehicle>  
<vehicle id="c13" type="veh_passenger" depart="0"> <route edges="301992138#1 301992138#2 -812429903 812429903 -301992138#2 -301992138#1 -301992138#0 -301909099#2 -301909099#1 -301909099#0 3358660 301992140#1 301992140#2 301992140#4 301992140#5 301992140#6 301992140#7 301992140#8 301992140#9 19568040#1 19568040#3 19568040#4 19568040#5 19568040#6 19568040#7 19568040#12 3372474#2 85798768#2 85798768#3 301636908#1 301636908#2 119616739 317846810#1 317846810#2 317846810#3 317846810#4 -192659001#7 3701206#0 3701206#1 3701206#2 3701206#3 3701206#4 3701206#5 3701206#6 3701206#7 3701206#9 3701206#10 3701206#11 3701206#12 3701205#0 3701205#1 3701205#2 3701205#3 3701205#4 3701205#5 3701205#6 3701205#8 3701205#9 3701205#10 3701205#11 3701205#12 3701205#13 3701205#14 3701205#15 3701205#16 3701205#17 3701205#18 3701205#19 3701205#20 3701205#21 3701205#22 3701205#23 3701205#24 3701205#25 463634003#0 463634003#1 463634003#2 463634003#3 463634003#4 463634003#5 463634003#6 463634003#8 463634003#9 463634003#10 463634003#11 463634003#12 463634003#13 463634003#14 3996948#0 3996948#1 3996948#2 3996948#3 3996948#4 3996948#5 3996948#6 3996948#7 -3996947#3 "/> </vehicle>  
<vehicle id="c14" type="veh_passenger" depart="0"> <route edges="312047479 -516612465 516401740#1 -86312159#1 -86312159#0 -23237294 3999752#0 3999752#1 104622444 4003919#0 4003919#1 4003919#2 77453620 72856795 77864399 177322355 3373675 77864405 86614478#1 86614478#2 -3996959 257483983#0 257483983#1 257483983#2 -607917128#0 301636909#2 -264061319#0 264061319#0 "/> </vehicle>  
<vehicle id="c15" type="veh_passenger" depart="0"> <route edges="3869830#2 8127969#2 8127969#3 123929547#0 123929547#1 123929547#2 1066053511 1085544572 147856945#0 147856945#1 147856945#6 147856945#7 147856945#8 147856945#9 147856945#10 147856945#11 147856945#12 -284664272#5 -284664272#4 -284664272#3 -284664272#2 -284664272#0 -608715544 622063669#2 -438252643#2 125835563#2 -13865507#2 -13865507#1 -13865507#0 292233691#0 292233691#1 -33922915 "/> </vehicle>  
<vehicle id="c16" type="veh_passenger" depart="0"> <route edges="-39682324 39682324 -37713149#0 -1155226687 -377918607 -351000218#1 3869809#0 3869809#2 345381438#0 345381438#1 345381438#2 -761467408#1 947657650#1 -26831233#0 795404463#2 1049133138 165498333#0 1069373380 1069373384#1 1069373381 1069373383#2 "/> </vehicle>  
<vehicle id="c17" type="veh_passenger" depart="0"> <route edges="-3731749#2 -3731749#1 100833388#0 -3731754 -8129164#0 -3731759 -1017412661 8129165#2 3731761#9 8129166#0 8129166#1 -608916196#0 130861474#0 "/> </vehicle>  
<vehicle id="c18" type="veh_passenger" depart="0"> <route edges="4000691 -192659005#0 -9262165 89022063 14038032 99416797#0 99416797#1 102139630 24355240 192659017#0 192659017#1 192659017#2 832174484 99416782#0 99416782#1 963637846 -9387961#3 -9387961#2 -9387961#1 -9387961#0 -14959925#0 340093684#5 14960929#2 "/> </vehicle>  
<vehicle id="c19" type="veh_passenger" depart="0"> <route edges="-792880289 792880289 -617622615#1 -617622615#0 -113997729#0 -301615094#14 -301615094#13 -301615094#12 -301615094#11 -301615094#7 -301615094#5 -301615094#4 -301615094#3 -301615094#2 -301615094#1 -301615094#0 -124042417 -304050774#0 -79002196#2 -79002196#0 23157748#1 23157748#2 23157748#3 -114869077 -773642168#0 -773642169 -1172748588#0 -306703048#2 8117006#0 8117006#1 8117006#2 8117006#3 -432342522#1 -432342522#0 -432342523 -409118862#2 -409118860 409118865#0 -409118868#13 -409118868#12 -409118868#10 -409118868#8 -409118868#6 -409118868#3 -409118868#2 "/> </vehicle>  
<vehicle id="c20" type="veh_passenger" depart="0"> <route edges="12374530 125835501#10 429571921 -125835568#1 -23707244 125835524#0 663770965#0 663770966#1 584356749 198559166#1 584356742 451873774#0 451873774#1 76867049 459446600 "/> </vehicle>  
<vehicle id="c21" type="veh_passenger" depart="0"> <route edges="-114869078#1 5108912#1 114869079 79801753#0 79801753#1 -51156834#6 -93203081 -51156834#4 -51156834#3 -51156834#2 -51156834#1 -51156834#0 -51156835#6 93203082 "/> </vehicle>  
<vehicle id="c22" type="veh_passenger" depart="0"> <route edges="-792880289 792880289 -617622615#1 -617622615#0 -113997729#0 -301615094#14 -301615094#13 -301615094#12 -301615094#11 -11615002#1 -11615002#0 141114449 5109036#0 141114452#2 141114452#3 141114452#5 141114452#6 141114452#8 141114452#9 141114452#10 141114452#14 141114452#16 5109036#14 284251318#5 284251318#7 284251318#8 284251318#9 284251318#10 284251318#11 -1090768814#1 1090768814#1 -284251318#11 "/> </vehicle>  
<vehicle id="c23" type="veh_passenger" depart="0"> <route edges="374339595 -330300725#0 -3869822 -330300723 659297690 25928482#0 25928482#1 1231875369#0 1231875369#1 3869812#1 3869812#2 3869812#3 3869812#4 3869812#5 305316104#0 304242019#0 304242019#1 304242019#3 337406039 337406060 -337406071#7 337406071#7 "/> </vehicle>  
<vehicle id="c24" type="veh_passenger" depart="0"> <route edges="87304282#6 541467951#1 541467951#2 541467950#0 126304967#5 126304967#6 154927950#1 154927950#2 622063631 458555385 "/> </vehicle>  
<vehicle id="c25" type="veh_passenger" depart="0"> <route edges="126679459#1 10155837#0 534322509#0 -534322511#2 -534322511#1 539817286 21550900#1 "/> </vehicle>  