<?xml version="1.0" encoding="UTF-8"?> <routes> <vType id="veh_passenger" vClass="passenger" /><vehicle id="r0" type="veh_passenger" depart="0" departLane="best"> <route edges="112917227#1 23707241 79784138 25155107#0 25155107#1 10657957#1 10657957#2 10657957#3 10657957#4 10657957#5 10657957#6 10657957#7 10657957#8 10657957#9 10657957#10 10657957#12 10657957#13 10657957#14 31058502#0 -87304285#1 -87304285#0 -31092162#1 -31092162#0 -31092163#3 -31092163#2 -31092163#1 31058506#0 31058506#1 31058506#2 31058506#3 31058506#5 872944179#0 872944179#1 -872944180 216229808 -12372192 82459657#1 -96072263#2 -96072263#1 -96072263#0 "/> </vehicle>  
<vehicle id="r1" type="veh_passenger" depart="0" departLane="best"> <route edges="-114869078#1 5108912#1 114869079 114869076#0 114869076#1 114869076#2 -114869076#6 -8083263#3 -111536908 71176470#1 71176470#2 -71176475#8 71176475#0 71176475#1 -96243268 -284251317#0 -284251318#16 -284251318#15 -284251318#14 -284251318#13 -284251318#11 -284251318#10 -284251318#9 -284251318#8 -284251318#7 -284251318#5 -284251318#4 -284251318#3 -284251318#2 -284251318#0 -284251316#2 "/> </vehicle>  
<vehicle id="r2" type="veh_passenger" depart="0" departLane="best"> <route edges="125472523 -8302412#0 3390203 125472517#0 125472517#1 125472517#2 3450250 3390201 27022062#0 27022062#1 27022062#2 -27062245#4 -27062245#2 -27062245#1 -27062245#0 3390199#0 3390199#1 3390199#3 3390199#4 3390199#5 3390199#6 3390199#8 94875151#2 24471498#0 24471498#1 807319701 27646575#1 -27646575#1 "/> </vehicle>  
<vehicle id="r3" type="veh_passenger" depart="0" departLane="best"> <route edges="-662329847 -662329851#0 -3351203#0 -608715568#2 723240771#0 655220800 "/> </vehicle>  
<vehicle id="r4" type="veh_passenger" depart="0" departLane="best"> <route edges="312047479 -516612465 516401740#1 351276441#2 351276441#3 -373013042#1 373013043#0 373013043#1 264864069#3 -64487971#1 -64487971#0 -488932566 -92419461 120201068#1 120201068#2 120201068#5 3450555#1 -71834711#0 -94247349#2 -94247349#1 94247352#0 -446511146#1 -446511146#0 -131711636 192658998 86985644#0 86985644#1 86985644#2 23237690 -23237690 "/> </vehicle>  
<vehicle id="r5" type="veh_passenger" depart="0" departLane="best"> <route edges="-114869078#1 5108912#1 114869079 114869076#0 114869076#1 114869076#2 -114869076#6 -8083263#3 -111536908 71176470#1 71176470#2 -71176475#8 71176475#0 71176475#1 -96243268 -284251317#0 -284251318#16 -284251318#15 -284251318#14 -284251318#13 -284251318#11 -284251318#10 -284251318#9 -284251318#8 -284251318#7 -284251318#5 -284251318#4 -284251318#3 -284251318#2 -284251318#0 281817948 79002200#1 79002200#2 79002200#3 -79002196#2 -79002196#0 23157748#1 23157748#2 23157748#3 -114869077 -773642168#0 -773642169 -1172748588#0 -306703048#2 8117006#0 -421437227 "/> </vehicle>  
<vehicle id="r6" type="veh_passenger" depart="0" departLane="best"> <route edges="-124190277#3 -124190277#2 510790349#0 3992548#2 254800931 62268125 263138305#0 44932918#0 -23041588#0 -8657101#1 104341004#2 104341004#3 12714939 320591282#0 947594566#1 947594566#2 104502503#0 104502503#1 104502503#2 104502503#3 11097529#0 11097529#1 138017384#1 22476094#1 22476094#2 22476094#3 125835546 138017385#0 138017385#1 38245753 80284458#0 80284458#1 80284458#2 80284458#3 112566015#0 112566015#1 33233154 -128494228 128494234 70023691#0 70023691#1 70023691#2 112565986#3 112566011#1 440732695 440732694 112566010 440732696 112566021#0 112566021#1 112566017 112566006 112565996 101388654#0 127840269#1 127840269#2 -658907067 53080482#0 53080482#1 53080482#2 -53080482#2 "/> </vehicle>  
<vehicle id="r7" type="veh_passenger" depart="0" departLane="best"> <route edges="-742307325 10682374#1 10682374#2 10682375#0 10682375#1 121562243#1 121562243#2 121562243#3 -10673268#8 -10673268#6 -10673268#5 -10673268#4 -10673268#0 101619135#3 101619135#6 101619135#7 101619135#8 101619135#10 101619135#11 101619135#12 112917227#0 112917227#1 23707241 79784138 25155107#0 25155107#1 "/> </vehicle>  
<vehicle id="r8" type="veh_passenger" depart="0" departLane="best"> <route edges="87304282#6 -541467951#0 -87304282#4 -87304282#3 -87304282#2 -87304282#1 -87304282#0 -126304955#4 -126304955#3 -126304955#2 -126304955#1 -24905455#6 "/> </vehicle>  
<vehicle id="r9" type="veh_passenger" depart="0" departLane="best"> <route edges="301992138#1 301992138#2 301992138#4 301992138#5 301992138#6 301992138#7 301992138#8 301992138#9 301992138#10 301992138#11 301992138#12 301992138#13 301992138#14 301992138#15 301992138#16 301992138#17 301992138#18 301992138#19 301992138#20 301992138#21 301992138#22 301992138#23 301992138#27 301992138#29 301992138#30 301992138#32 301615045 -79299308 -85798761 -23121879 854173470 -854173472#0 23157748#3 "/> </vehicle>  
<vehicle id="r10" type="veh_passenger" depart="0" departLane="best"> <route edges="26410313#2 25933419#6 925357724#0 925357724#1 -17417027#2 -17417027#1 -17417027#0 25806803#1 25806813#0 "/> </vehicle>  
<vehicle id="r11" type="veh_passenger" depart="0" departLane="best"> <route edges="-88361315#0 88361315#0 88361315#1 -103559274#1 -103559274#0 -366337448 325166038#0 325166038#1 325166038#2 325166038#3 325166038#6 17336342 "/> </vehicle>  
<vehicle id="r12" type="veh_passenger" depart="0" departLane="best"> <route edges="-27625958#0 1052752215#2 1052752216 32271342#0 32271342#1 32271352#0 32271352#1 460383204 -23889534#2 -23889534#1 23889529#0 23889529#1 -216229807 -95942077#1 31058512#1 31092163#2 31092163#3 31092162#0 31092162#1 31058513#0 31058513#1 "/> </vehicle>  
<vehicle id="r13" type="veh_passenger" depart="0" departLane="best"> <route edges="8127688#0 117340197#0 117340197#1 -3358662#0 -3372479 -85799069#0 3372474#0 3372474#1 -19568040#12 -19568040#7 -19568040#6 -19568040#5 -19568040#4 -19568040#3 -19568040#1 -19568040#0 -301992140#8 -301992140#7 -844205959 844205959 "/> </vehicle>  
<vehicle id="r14" type="veh_passenger" depart="0" departLane="best"> <route edges="-978148215#1 978148215#1 48446149#1 48446149#2 48446149#3 48446149#4 48446147#0 48446147#1 120086001#1 126197746#0 978148216 120086001#3 120086001#4 21845858#1 21845858#2 -243767917#9 -432311547 841250377#1 -243767917#6 -846407026 841250377#3 126197749#0 126197749#1 126197749#2 126197749#3 126197749#4 126197749#5 126197749#6 126197749#7 126197749#8 126197749#9 126197749#10 126197747#0 126197747#1 126197747#2 126197747#3 126197747#4 126197747#5 301909101#0 301909101#1 301909101#2 301909101#3 -126197750#2 -126197750#1 -126197750#0 40017749#2 40017749#3 40017749#4 40017749#5 40017749#6 40017749#7 40017749#8 40017749#9 40017749#10 40017749#11 -840098080 840098080 "/> </vehicle>  
<vehicle id="r15" type="veh_passenger" depart="0" departLane="best"> <route edges="-978148215#1 -978148215#0 -616174250 -174886292 -655251291 -120125393#3 -120125393#1 -120125393#0 301552210#0 301552210#1 301552210#2 301552211#0 301552211#1 85799069#0 85799069#1 608715635 608715632 301552213#0 301552213#1 301552213#2 956394198#0 301552215 578662083 -956394193#0 "/> </vehicle>  
<vehicle id="r16" type="veh_passenger" depart="0" departLane="best"> <route edges="89873168 9904060#4 -30050536 30050534#2 30050534#3 30707383 -30707383 "/> </vehicle>  
<vehicle id="r17" type="veh_passenger" depart="0" departLane="best"> <route edges="-195761715#0 195761715#0 195761714 -430047989#6 -430047989#5 -430047989#4 -430047989#3 -430047989#2 -430047989#1 -125835570 -294365637 -3871574#3 -3871574#2 -3871574#1 -3871574#0 -293787287#5 -293787287#4 -10155487#8 -10155487#7 -10155487#6 -10155487#5 -10155487#4 -10155487#3 -10155487#2 -10155487#1 147856936#0 147856936#1 147856936#5 147856936#6 290375126#2 290375126#3 290375126#4 -3871577#0 -147856945#12 -147856945#11 -147856945#10 -147856945#9 -147856945#8 -147856945#7 -147856945#6 -147856945#1 -147856945#0 683066057#0 683066057#1 311628795#0 311628795#1 311628795#2 311628797#1 -123929547#2 -123929547#1 -123929547#0 -8127969#3 -8127969#2 -8127969#1 -8127969#0 -461159369#6 -461159369#5 -461159369#4 -818790225 -325166038#8 -325166038#6 -325166038#3 -325166038#2 -325166038#1 -325166038#0 366337448 -366337446#1 "/> </vehicle>  
<vehicle id="r18" type="veh_passenger" depart="0" departLane="best"> <route edges="-302138410#0 160912994 3869799#0 3869799#1 160912992#0 160912992#1 160912992#2 160912992#3 160912992#4 -23119324 -17023221#2 -17023221#1 -17023221#0 -616174267#0 -616174258#0 199381118#2 3991778 342997240 3677823#0 3677823#1 3677823#2 8131791#2 12707021#4 70588120 "/> </vehicle>  
<vehicle id="r19" type="veh_passenger" depart="0" departLane="best"> <route edges="374339595 330300725#1 -843534478#1 -314635787#2 -314635787#1 -314635787#0 510790349#0 -304242025#0 318825610#1 13883887#1 121850702#0 13883888#1 30771385 121850710 -23041397#0 "/> </vehicle>  
<vehicle id="r20" type="veh_passenger" depart="0" departLane="best"> <route edges="79801750#11 92676009#4 92676009#5 11064175#22 11064175#23 11064175#24 11064175#25 11064175#26 1084279279#1 92514143#1 1084279279#4 1084279279#5 1084279279#6 1084279279#7 1084279279#8 1084279279#9 1084279279#10 1084279279#11 1084279279#12 1084279279#13 1084279279#14 1084279279#15 1084279279#16 1084279279#17 1084279279#18 1084279279#19 1084279279#20 1084279279#21 11064178#0 11064178#1 11064178#2 11064178#3 231212171#1 79801752#0 79801752#1 -1228851397#1 350992061 3373099#0 3373099#1 633254748#0 79002193#0 79002193#1 90980081#1 90980081#2 -105447589#5 -105447589#0 105447667 -22888967#1 -22888967#0 -8656934#8 -8656934#7 -1090768824 1090768824 "/> </vehicle>  
<vehicle id="r21" type="veh_passenger" depart="0" departLane="best"> <route edges="-742307325 10682374#1 -10682374#1 1088246738#1 742307329 742307327#1 86203360#0 -344505059 -344505060 -86203341#0 742307328#1 80341408#0 16767288#1 80341410 79940705#0 79940705#1 79940705#2 79940705#3 79940705#5 79940705#6 79940705#7 79940705#8 79940705#9 79940705#10 79940705#11 92326679#0 92326679#1 143243228#0 143243228#1 -192689385 -90636634#1 -90636634#0 -119495397 -10672054#4 -10672054#3 -10672054#2 -10672054#1 -10672054#0 -150598053#2 -150598053#1 -150598053#0 150598053#0 "/> </vehicle>  
<vehicle id="r22" type="veh_passenger" depart="0" departLane="best"> <route edges="813979460 -813979460 521257400#1 813979468 123929644#0 123929644#1 123929644#2 123929644#3 578662082#1 578662081#1 578662081#2 578662081#3 609991297 1222601059 192559630#0 608916197#1 -8129166#1 -8129166#0 -192559609#0 -8129165#2 -8129165#1 -8129165#0 "/> </vehicle>  
<vehicle id="r23" type="veh_passenger" depart="0" departLane="best"> <route edges="29545768#2 870313897#1 870313897#2 -29545808 29545770#1 "/> </vehicle>  
<vehicle id="r24" type="veh_passenger" depart="0" departLane="best"> <route edges="-662329847 662329846 662329835 3351206#1 -608715566 -439142857#3 -439142857#2 -4005355#0 978148215#0 978148215#1 48446149#1 48446149#2 48446149#3 -29436740#6 -29436740#4 -29436740#3 -29436740#1 -29436740#0 23104271#1 301552209#1 301552207#2 301552207#3 301552207#4 301552207#5 -301552207#5 "/> </vehicle>  
<vehicle id="r25" type="veh_passenger" depart="0" departLane="best"> <route edges="-207226597#0 -3752541 -192559606#3 -192559606#2 -192559606#1 -192559606#0 -16771605#10 -16771605#9 -16771605#8 -16771605#7 -16771605#6 -16771605#5 -16771605#4 -16771605#3 -16771605#2 -16771605#1 -16771605#0 -608715510#0 -264864067 968811658 23832344 351276441#1 -86312159#1 -86312159#0 -23237294 3999752#0 3999752#1 104622444 4003919#0 4003919#1 4003919#2 77453620 72903737#0 965192946 767720434#1 72903733#2 72903733#3 4003910#0 -3450293#0 3328634#0 -265006337 -832174479#2 -832174479#1 -832174479#0 -832174478 -23119849 -23119710 120086152 23119517#3 956394173#1 -192659001#11 -192659001#8 -192659001#7 3701206#0 3701206#1 3701206#2 3701206#3 3701206#4 3701206#5 3701206#6 3701206#7 3701206#9 3701206#10 3701206#11 3701206#12 3701205#0 3701205#1 3701205#2 3701205#3 3701205#4 3701205#5 3701205#6 3701205#8 3701205#9 3701205#10 3701205#11 3701205#12 3701205#13 3701205#14 3701205#15 3701205#16 3701205#17 3701205#18 3701205#19 3701205#20 3701205#21 3701205#22 3701205#23 3701205#24 3701205#25 -8128931#10 -8128931#9 -8128931#8 192659021#11 192659021#12 192659021#13 192659021#14 192659021#15 -192659013#25 -192659013#24 -192659013#23 -192659013#22 -192659013#21 -192659013#19 -192659013#18 -192659013#17 -192659013#16 -192659013#15 -192659013#14 -192659013#13 -192659013#12 -192659013#11 -192659013#10 -192659013#9 -192659013#8 -192659013#7 -192659013#6 -192659013#5 -192659013#4 -192659013#3 -192659013#1 -192659013#0 -3701207#1 -3701207#0 -982974944#13 -982974944#12 -982974944#11 -982974944#10 -982974944#9 -982974944#6 -982974944#5 -982974944#3 -982974944#2 -982974944#0 -79801753#7 4416156#1 23157644 192658999#1 -79801753#5 -79801753#4 -79801753#3 -79801753#2 -79801753#1 -79801753#0 -114869079 -5108912#1 -3869806#2 -3869806#1 -3869806#0 -967543686#3 -967543686#2 -967543686#1 -967543686#0 -192658995#1 -192658995#0 192658994#0 192658994#1 344507814#1-AddedOnRampEdge 344507814#1 339911959 32476967#6 32476970 339911978 339911992 3878533 339911880 19787334 1024179480 14961374#0 14961374#1 14961374#2 14961374#3 14961374#4 14961374#5 845718297 340093703#1 340265983#1 14866755#4 14866755#5 14866755#6 "/> </vehicle>  
<vehicle id="r26" type="veh_passenger" depart="0" departLane="best"> <route edges="79801750#11 92676009#4 92676009#5 11064175#22 11064175#23 11064175#24 11064175#25 11064175#26 1084279279#1 92514143#1 1084279279#4 1084279279#5 1084279279#6 1084279279#7 1084279279#8 1084279279#9 1084279279#10 1084279279#11 1084279279#12 1084279279#13 1084279279#14 1084279279#15 1084279279#16 1084279279#17 1084279279#18 1084279279#19 1084279279#20 1084279279#21 11064178#0 11064178#1 11064178#2 11064178#3 231212171#1 79801752#0 79801752#1 -1228851397#1 350992061 3373099#0 3373099#1 633254748#0 79002193#0 79002193#1 90980081#1 90980081#2 -105447589#5 -105447589#0 105447667 192658996#2 192658996#3 192658996#6 96768814#0 96768814#1 96768814#2 96768814#3 281817948 79002200#1 79002200#2 79002200#3 -79002196#2 "/> </vehicle>  
<vehicle id="r27" type="veh_passenger" depart="0" departLane="best"> <route edges="3343970#7 3343970#0 3343970#1 371242778#0 371242778#2 371242778#3 71745449 898173885#1 898173884#1 13523066#0 13523066#1 1056637435 94585449 586268890#0 586268890#1 586268890#2 863272998 16775188 3991777#0 3991777#1 586268887 608715536#0 126304933#0 126304933#1 126304933#2 126304933#3 687525255#0 686098029#2 "/> </vehicle>  
<vehicle id="r28" type="veh_passenger" depart="0" departLane="best"> <route edges="-114869078#1 5108912#1 114869079 114869076#0 114869076#1 114869076#2 -114869076#6 -8083263#3 -111536908 71176470#1 71176470#2 -71176475#8 71176475#0 71176475#1 -96243268 -284251317#0 -284251318#16 -284251318#15 -284251318#14 -284251318#13 -284251318#11 -284251318#10 -284251318#9 -284251318#8 -284251318#7 -284251318#5 -284251318#4 -284251318#3 -284251318#2 -284251318#0 281817948 79002200#1 79002200#2 79002200#3 -79002196#2 -79002196#0 23157748#1 23157748#2 23157748#3 -114869077 -773642168#0 -773642169 -1172748588#0 -306703048#2 8117006#0 8117006#1 8117006#2 8117006#3 -432342522#1 -432342522#0 -432342523 -409118862#2 -409118860 409118865#0 409118865#1 409118868#18 409118868#19 414763942 "/> </vehicle>  
<vehicle id="r29" type="veh_passenger" depart="0" departLane="best"> <route edges="-39682324 39682324 -37713149#0 156994855 1229291329 -31861844 31861844 -1229291329 "/> </vehicle>  
<vehicle id="r30" type="veh_passenger" depart="0" departLane="best"> <route edges="-792880289 792880289 -617622615#1 -617622615#0 -113997729#0 -301615094#14 -301615094#13 -301615094#12 -301615094#11 -301615094#7 -301615094#5 -301615094#4 -301615094#3 -301615094#2 -301615094#1 -301615094#0 -124042417 -304050774#0 -79002196#2 -79002196#0 23157748#1 23157748#2 23157748#3 85798761 79299308 -301615045 -301992138#32 -301992138#30 -301992138#29 -301992138#27 -301992138#23 -301992138#22 126197748#0 -809162260#1 810190358#0 810190358#1 -810190358#1 "/> </vehicle>  
<vehicle id="r31" type="veh_passenger" depart="0" departLane="best"> <route edges="112917249 11029553#0 11029553#2 11029553#3 1110719637#0 76738459#0 76738459#1 -76738634 -76738622#1 -76738622#0 -279689765 -11031159#1 10672054#0 10672054#1 "/> </vehicle>  
<vehicle id="r32" type="veh_passenger" depart="0" departLane="best"> <route edges="578662078#1 -16767290 16775050#0 16775050#1 16775050#2 670002670#0 3991617#0 3991617#1 "/> </vehicle>  
<vehicle id="r33" type="veh_passenger" depart="0" departLane="best"> <route edges="8127688#0 -8127688#0 3358662#2 -23119710 120086152 23119517#3 956394173#1 -192659001#11 -192659001#8 -192659001#7 -192659001#6 -192659001#5 -192659001#3 -93570694#1 "/> </vehicle>  
<vehicle id="r34" type="veh_passenger" depart="0" departLane="best"> <route edges="-207226597#0 -3752541 -192559606#3 -192559606#2 -192559606#1 -192559606#0 -16771605#10 -16771605#9 -16771605#8 -16771605#7 -16771605#6 -16771605#5 -16771605#4 -16771605#3 -16771605#2 -16771605#1 -16771605#0 -608715510#0 -264864067 968811658 23832344 351276443#1 192659010 85044935#0 3390192 461159346 325166039#0 325166039#2 325166039#3 461159351 3390197#0 3390197#1 3390197#3 3390197#4 3390197#5 -3390199#5 -3390199#4 -3390199#3 -3390199#1 -3390199#0 -439142859#7 -439142859#6 -439142859#5 -439142859#2 -439142859#0 454112424 126679459#0 534322513 534322514#1 534322514#2 "/> </vehicle>  
<vehicle id="r35" type="veh_passenger" depart="0" departLane="best"> <route edges="-114869078#1 5108912#1 114869079 79801753#0 79801753#1 79801753#2 -997445588 -71176470#7 -71176470#6 "/> </vehicle>  
<vehicle id="r36" type="veh_passenger" depart="0" departLane="best"> <route edges="-742307325 10682374#1 10682374#2 10682374#3 10682374#4 460905528#0 460905528#1 -10682378#1 -974936718 -282774830#0 10682374#6 10682374#7 10682374#8 10682374#9 85798399#3 85798399#5 10672785 121562245#0 121562245#1 10672787 192706267#1 192706267#2 192706267#3 192706267#5 192706268#1 192706268#3 318218551 79942232 318218548 79942234#0 79942234#1 79942234#2 76844534 11302394 -11302394 "/> </vehicle>  
<vehicle id="r37" type="veh_passenger" depart="0" departLane="best"> <route edges="-133531196#1 133531196#1 9900007#4 9900007#5 41403544#3 813970227 78568455#0 78568455#1 28982660 813979473 192559626 192559627#0 -813937602 "/> </vehicle>  
<vehicle id="r38" type="veh_passenger" depart="0" departLane="best"> <route edges="3343970#7 3343970#0 3343970#1 3343970#2 3343970#3 3343970#4 3343970#5 -3343969#5 -3343969#4 -3343969#3 -3343969#2 -3343969#1 -3343969#0 1063831486#1 1063831486#2 25851248#1 1063831514 8131717#0 8131717#1 27471469#2 27471469#3 105073087#8 23119321#0 -732000697 "/> </vehicle>  
<vehicle id="r39" type="veh_passenger" depart="0" departLane="best"> <route edges="-978148215#1 -978148215#0 -616174250 -174886292 -655251291 -120125393#3 -120125393#1 -120125393#0 301552210#0 301552210#1 301552210#2 301552211#0 301552211#1 85799069#0 85799069#1 608715635 608715632 301552213#0 301552213#1 301552213#2 956394198#0 301552215 578662083 96369014#0 96369014#2 "/> </vehicle>  
<vehicle id="r40" type="veh_passenger" depart="0" departLane="best"> <route edges="26410313#2 -25933419#5 -25933419#2 -25933419#1 -25933419#0 25933421#0 25933421#1 25933421#2 25933421#3 10155462#4 10155462#1 -25933426#1 -25933426#0 3876851#3 3876851#4 337406053#5 337406053#6 622063652#2 -337434145#0 337406071#3 -337406025 -337406071#1 -337406071#0 337406042 -337406039 337406039 337406060 "/> </vehicle>  
<vehicle id="r41" type="veh_passenger" depart="0" departLane="best"> <route edges="-61557498#0 3358673 -8127969#3 -8127969#2 -3869830#2 "/> </vehicle>  
<vehicle id="r42" type="veh_passenger" depart="0" departLane="best"> <route edges="-88361315#0 88361315#0 88361315#1 -103559274#1 -103559274#0 174338457#0 174338457#1 429706866 1229904661 3677944#0 1229904660#2 174338458#0 174338458#1 174338458#3 174338458#4 97175693#0 97175693#1 813979463#0 659297693 521257400#1 813979468 123929644#0 123929644#1 123929644#2 123929644#3 578662082#1 578662081#1 578662081#2 578662081#3 609991297 1222601059 192559659 "/> </vehicle>  
<vehicle id="r43" type="veh_passenger" depart="0" departLane="best"> <route edges="112917227#1 23707241 79784138 12195285 -101619135#12 -101619135#11 -101619135#10 10268975#0 10268975#1 10268975#2 10268975#3 10268975#4 10268975#5 10268975#6 101619120#4 101619120#5 101619120#6 1114893751 104502497 622063631 -23707242#0 -608715582#1 -608715582#0 -284832275 -608715586#3 608715586#3 284832275 608715582#0 608715582#1 23707242#0 "/> </vehicle>  
<vehicle id="r44" type="veh_passenger" depart="0" departLane="best"> <route edges="87304282#6 541467951#1 541467951#2 541467950#0 -126304967#3 -126304967#2 -126304967#1 -61596289#0 -940912606#2 10230617 3992546 608715586#0 "/> </vehicle>  
<vehicle id="r45" type="veh_passenger" depart="0" departLane="best"> <route edges="-114869078#1 5108912#1 114869079 114869076#0 114869076#1 114869076#2 -114869076#6 -8083263#3 -111536908 71176470#1 71176470#2 -71176475#8 71176475#0 71176475#1 -96243268 -284251317#0 -284251318#16 -284251318#15 -284251318#14 -284251318#13 -284251318#11 -284251318#10 -284251318#9 -284251318#8 -284251318#7 -284251318#5 -284251318#4 -284251318#3 -284251318#2 -284251318#0 -284251316#2 -284251316#1 -284251316#0 -19955587 970359922 293394693 284251316#1 284251316#2 "/> </vehicle>  
<vehicle id="r46" type="veh_passenger" depart="0" departLane="best"> <route edges="12374530 286455900#0 286455900#1 286455900#2 286455900#3 608715553#1 608715553#2 608715553#3 608715553#4 608715553#5 608715552#1 24905455#1 24905455#3 24905455#4 24905455#5 24905455#6 126304955#1 126304955#2 "/> </vehicle>  
<vehicle id="r47" type="veh_passenger" depart="0" departLane="best"> <route edges="-3343973#0 3343976#0 3343976#1 3343976#2 3343976#3 3343976#5 566103884 -566103886 23435867#1 3991610#0 3991610#1 "/> </vehicle>  
<vehicle id="r48" type="veh_passenger" depart="0" departLane="best"> <route edges="-39682324 39682324 -37713149#0 156994855 1229291329 702133805 25767041 210985923#0 210985923#1 "/> </vehicle>  
<vehicle id="r49" type="veh_passenger" depart="0" departLane="best"> <route edges="374339595 330300725#1 -843534478#1 -314635787#2 -314635787#1 -314635787#0 510790349#0 3992548#2 254800931 62268125 263138305#0 44932918#0 -23041588#0 -8657101#1 104341004#2 104341004#3 12714939 320591282#0 932392823#0 932392823#1 -932392824 932392822 -932392825 -15216997#1 "/> </vehicle>  
<vehicle id="c0" type="veh_passenger" depart="0" departLane="best"> <route edges="112917227#1 23707241 79784138 25155107#0 25155107#1 10657957#1 10657957#2 10657957#3 10657957#4 10657957#5 10657957#6 10657957#7 10657957#8 10657957#9 10657957#10 10657957#12 10657957#13 10657957#14 31058502#0 -87304285#1 -87304285#0 -31092162#1 -31092162#0 -31092163#3 -31092163#2 -31092163#1 31058506#0 31058506#1 31058506#2 31058506#3 31058506#5 872944179#0 872944179#1 -872944180 216229808 -12372192 82459657#1 -96072263#2 -96072263#1 -96072263#0 "/> </vehicle>  
<vehicle id="c1" type="veh_passenger" depart="0" departLane="best"> <route edges="-114869078#1 5108912#1 114869079 114869076#0 114869076#1 114869076#2 -114869076#6 -8083263#3 -111536908 71176470#1 71176470#2 -71176475#8 71176475#0 71176475#1 -96243268 -284251317#0 -284251318#16 -284251318#15 -284251318#14 -284251318#13 -284251318#11 -284251318#10 -284251318#9 -284251318#8 -284251318#7 -284251318#5 -284251318#4 -284251318#3 -284251318#2 -284251318#0 -284251316#2 "/> </vehicle>  
<vehicle id="c2" type="veh_passenger" depart="0" departLane="best"> <route edges="125472523 -8302412#0 3390203 125472517#0 125472517#1 125472517#2 3450250 3390201 27022062#0 27022062#1 27022062#2 -27062245#4 -27062245#2 -27062245#1 -27062245#0 3390199#0 3390199#1 3390199#3 3390199#4 3390199#5 3390199#6 3390199#8 94875151#2 24471498#0 24471498#1 807319701 27646575#1 -27646575#1 "/> </vehicle>  
<vehicle id="c3" type="veh_passenger" depart="0" departLane="best"> <route edges="-662329847 -662329851#0 -3351203#0 -608715568#2 723240771#0 655220800 "/> </vehicle>  
<vehicle id="c4" type="veh_passenger" depart="0" departLane="best"> <route edges="312047479 -516612465 516401740#1 351276441#2 351276441#3 -373013042#1 373013043#0 373013043#1 264864069#3 -64487971#1 -64487971#0 -488932566 -92419461 120201068#1 120201068#2 120201068#5 3450555#1 -71834711#0 -94247349#2 -94247349#1 94247352#0 -446511146#1 -446511146#0 -131711636 192658998 86985644#0 86985644#1 86985644#2 23237690 -23237690 "/> </vehicle>  
<vehicle id="c5" type="veh_passenger" depart="0" departLane="best"> <route edges="-114869078#1 5108912#1 114869079 114869076#0 114869076#1 114869076#2 -114869076#6 -8083263#3 -111536908 71176470#1 71176470#2 -71176475#8 71176475#0 71176475#1 -96243268 -284251317#0 -284251318#16 -284251318#15 -284251318#14 -284251318#13 -284251318#11 -284251318#10 -284251318#9 -284251318#8 -284251318#7 -284251318#5 -284251318#4 -284251318#3 -284251318#2 -284251318#0 281817948 79002200#1 79002200#2 79002200#3 -79002196#2 -79002196#0 23157748#1 23157748#2 23157748#3 -114869077 -773642168#0 -773642169 -1172748588#0 -306703048#2 8117006#0 -421437227 "/> </vehicle>  
<vehicle id="c6" type="veh_passenger" depart="0" departLane="best"> <route edges="-124190277#3 -124190277#2 510790349#0 3992548#2 254800931 62268125 263138305#0 44932918#0 -23041588#0 -8657101#1 104341004#2 104341004#3 12714939 320591282#0 947594566#1 947594566#2 104502503#0 104502503#1 104502503#2 104502503#3 11097529#0 11097529#1 138017384#1 22476094#1 22476094#2 22476094#3 125835546 138017385#0 138017385#1 38245753 80284458#0 80284458#1 80284458#2 80284458#3 112566015#0 112566015#1 33233154 -128494228 128494234 70023691#0 70023691#1 70023691#2 112565986#3 112566011#1 440732695 440732694 112566010 440732696 112566021#0 112566021#1 112566017 112566006 112565996 101388654#0 127840269#1 127840269#2 -658907067 53080482#0 53080482#1 53080482#2 -53080482#2 "/> </vehicle>  
<vehicle id="c7" type="veh_passenger" depart="0" departLane="best"> <route edges="-742307325 10682374#1 10682374#2 10682375#0 10682375#1 121562243#1 121562243#2 121562243#3 -10673268#8 -10673268#6 -10673268#5 -10673268#4 -10673268#0 101619135#3 101619135#6 101619135#7 101619135#8 101619135#10 101619135#11 101619135#12 112917227#0 112917227#1 23707241 79784138 25155107#0 25155107#1 "/> </vehicle>  
<vehicle id="c8" type="veh_passenger" depart="0" departLane="best"> <route edges="87304282#6 -541467951#0 -87304282#4 -87304282#3 -87304282#2 -87304282#1 -87304282#0 -126304955#4 -126304955#3 -126304955#2 -126304955#1 -24905455#6 "/> </vehicle>  
<vehicle id="c9" type="veh_passenger" depart="0" departLane="best"> <route edges="301992138#1 301992138#2 301992138#4 301992138#5 301992138#6 301992138#7 301992138#8 301992138#9 301992138#10 301992138#11 301992138#12 301992138#13 301992138#14 301992138#15 301992138#16 301992138#17 301992138#18 301992138#19 301992138#20 301992138#21 301992138#22 301992138#23 301992138#27 301992138#29 301992138#30 301992138#32 301615045 -79299308 -85798761 -23121879 854173470 -854173472#0 23157748#3 "/> </vehicle>  
<vehicle id="c10" type="veh_passenger" depart="0" departLane="best"> <route edges="26410313#2 25933419#6 925357724#0 925357724#1 -17417027#2 -17417027#1 -17417027#0 25806803#1 25806813#0 "/> </vehicle>  
<vehicle id="c11" type="veh_passenger" depart="0" departLane="best"> <route edges="-88361315#0 88361315#0 88361315#1 -103559274#1 -103559274#0 -366337448 325166038#0 325166038#1 325166038#2 325166038#3 325166038#6 17336342 "/> </vehicle>  
<vehicle id="c12" type="veh_passenger" depart="0" departLane="best"> <route edges="-27625958#0 1052752215#2 1052752216 32271342#0 32271342#1 32271352#0 32271352#1 460383204 -23889534#2 -23889534#1 23889529#0 23889529#1 -216229807 -95942077#1 31058512#1 31092163#2 31092163#3 31092162#0 31092162#1 31058513#0 31058513#1 "/> </vehicle>  
<vehicle id="c13" type="veh_passenger" depart="0" departLane="best"> <route edges="8127688#0 117340197#0 117340197#1 -3358662#0 -3372479 -85799069#0 3372474#0 3372474#1 -19568040#12 -19568040#7 -19568040#6 -19568040#5 -19568040#4 -19568040#3 -19568040#1 -19568040#0 -301992140#8 -301992140#7 -844205959 844205959 "/> </vehicle>  
<vehicle id="c14" type="veh_passenger" depart="0" departLane="best"> <route edges="-978148215#1 978148215#1 48446149#1 48446149#2 48446149#3 48446149#4 48446147#0 48446147#1 120086001#1 126197746#0 978148216 120086001#3 120086001#4 21845858#1 21845858#2 -243767917#9 -432311547 841250377#1 -243767917#6 -846407026 841250377#3 126197749#0 126197749#1 126197749#2 126197749#3 126197749#4 126197749#5 126197749#6 126197749#7 126197749#8 126197749#9 126197749#10 126197747#0 126197747#1 126197747#2 126197747#3 126197747#4 126197747#5 301909101#0 301909101#1 301909101#2 301909101#3 -126197750#2 -126197750#1 -126197750#0 40017749#2 40017749#3 40017749#4 40017749#5 40017749#6 40017749#7 40017749#8 40017749#9 40017749#10 40017749#11 -840098080 840098080 "/> </vehicle>  
<vehicle id="c15" type="veh_passenger" depart="0" departLane="best"> <route edges="-978148215#1 -978148215#0 -616174250 -174886292 -655251291 -120125393#3 -120125393#1 -120125393#0 301552210#0 301552210#1 301552210#2 301552211#0 301552211#1 85799069#0 85799069#1 608715635 608715632 301552213#0 301552213#1 301552213#2 956394198#0 301552215 578662083 -956394193#0 "/> </vehicle>  
<vehicle id="c16" type="veh_passenger" depart="0" departLane="best"> <route edges="89873168 9904060#4 -30050536 30050534#2 30050534#3 30707383 -30707383 "/> </vehicle>  