<?xml version="1.0" encoding="UTF-8"?> <routes> <vType id="type1" length="5.00" maxSpeed="70.00" accel="2.6" decel="4.5" sigma="0.5" /> 
<flow id = "r0" begin="0" end = "500" departLane="random" number = "5" from = "-10362550#1" to = "-702133805" type="type1"></flow> 
<flow id = "r1" begin="0" end = "500" departLane="random" number = "5" from = "-37713149#1" to = "-26124368" type="type1"></flow> 
<flow id = "r2" begin="0" end = "500" departLane="random" number = "5" from = "3343970#6" to = "-439142856#3" type="type1"></flow> 
<flow id = "r3" begin="0" end = "500" departLane="random" number = "5" from = "-37713149#1" to = "26124368" type="type1"></flow> 
<flow id = "r4" begin="0" end = "500" departLane="random" number = "5" from = "688600643#0" to = "-8657104#2" type="type1"></flow> 
<flow id = "r5" begin="0" end = "500" departLane="random" number = "5" from = "79501548#0" to = "284251317#0" type="type1"></flow> 
<flow id = "r6" begin="0" end = "500" departLane="random" number = "5" from = "-521257400#1" to = "192559620" type="type1"></flow> 
<flow id = "r7" begin="0" end = "500" departLane="random" number = "5" from = "-99500153#2" to = "-53063942#2" type="type1"></flow> 
<flow id = "r8" begin="0" end = "500" departLane="random" number = "5" from = "-608715603" to = "138017383#1" type="type1"></flow> 
<flow id = "r9" begin="0" end = "500" departLane="random" number = "5" from = "-688347308#2" to = "485293334#0" type="type1"></flow> 
<flow id = "r10" begin="0" end = "500" departLane="random" number = "5" from = "-25933423#4" to = "502317796#0" type="type1"></flow> 
<flow id = "r11" begin="0" end = "500" departLane="random" number = "5" from = "-608818920#2" to = "23041592" type="type1"></flow> 
<flow id = "r12" begin="0" end = "500" departLane="random" number = "5" from = "120086152" to = "48284227" type="type1"></flow> 
<flow id = "r13" begin="0" end = "500" departLane="random" number = "5" from = "112917249" to = "339533471#0" type="type1"></flow> 
<flow id = "r14" begin="0" end = "500" departLane="random" number = "5" from = "112917249" to = "-10672135#9" type="type1"></flow> 
<flow id = "r15" begin="0" end = "500" departLane="random" number = "5" from = "-688347308#2" to = "27682443#0" type="type1"></flow> 
<flow id = "r16" begin="0" end = "500" departLane="random" number = "5" from = "8127688#0" to = "119616739" type="type1"></flow> 
<flow id = "r17" begin="0" end = "500" departLane="random" number = "5" from = "126679459#0" to = "3752553#6" type="type1"></flow> 
<flow id = "r18" begin="0" end = "500" departLane="random" number = "5" from = "-3869812#0" to = "187498438" type="type1"></flow> 
<flow id = "r19" begin="0" end = "500" departLane="random" number = "5" from = "3343973#0" to = "3990533#0" type="type1"></flow> 
<flow id = "r20" begin="0" end = "500" departLane="random" number = "5" from = "-37713149#1" to = "101388643#0" type="type1"></flow> 
<flow id = "r21" begin="0" end = "500" departLane="random" number = "5" from = "-742307325" to = "-30050535#1" type="type1"></flow> 
<flow id = "r22" begin="0" end = "500" departLane="random" number = "5" from = "78627821" to = "93647798#0" type="type1"></flow> 
<flow id = "r23" begin="0" end = "500" departLane="random" number = "5" from = "-3869812#0" to = "-99500133#2" type="type1"></flow> 
<flow id = "r24" begin="0" end = "500" departLane="random" number = "5" from = "-742307325" to = "85798399#0" type="type1"></flow> 
<flow id = "r25" begin="0" end = "500" departLane="random" number = "5" from = "-320989025#3" to = "-832174479#2" type="type1"></flow> 
<flow id = "r26" begin="0" end = "500" departLane="random" number = "5" from = "3869830#2" to = "-695832819" type="type1"></flow> 
<flow id = "r27" begin="0" end = "500" departLane="random" number = "5" from = "-3869812#0" to = "8055720#3" type="type1"></flow> 
<flow id = "r28" begin="0" end = "500" departLane="random" number = "5" from = "-43548669" to = "9262295#4" type="type1"></flow> 
<flow id = "r29" begin="0" end = "500" departLane="random" number = "5" from = "-302138410#0" to = "8130905#0" type="type1"></flow> 
<flow id = "r30" begin="0" end = "500" departLane="random" number = "5" from = "608754692#5" to = "555219172#4" type="type1"></flow> 
<flow id = "r31" begin="0" end = "500" departLane="random" number = "5" from = "4884715" to = "3991661#2" type="type1"></flow> 
<flow id = "r32" begin="0" end = "500" departLane="random" number = "5" from = "174985125" to = "12712557" type="type1"></flow> 
<flow id = "r33" begin="0" end = "500" departLane="random" number = "5" from = "-320989025#3" to = "-461159351" type="type1"></flow> 
<flow id = "r34" begin="0" end = "500" departLane="random" number = "5" from = "-99500153#2" to = "8412180#0" type="type1"></flow> 
<flow id = "r35" begin="0" end = "500" departLane="random" number = "5" from = "23832344" to = "-16771606#6" type="type1"></flow> 
<flow id = "r36" begin="0" end = "500" departLane="random" number = "5" from = "-3869812#0" to = "3992549#6" type="type1"></flow> 
<flow id = "r37" begin="0" end = "500" departLane="random" number = "5" from = "26410313#0" to = "23041938#0" type="type1"></flow> 
<flow id = "r38" begin="0" end = "500" departLane="random" number = "5" from = "-662329847" to = "-48446711" type="type1"></flow> 
<flow id = "r39" begin="0" end = "500" departLane="random" number = "5" from = "-662329847" to = "3343976#0" type="type1"></flow> 
<flow id = "r40" begin="0" end = "500" departLane="random" number = "5" from = "26410313#0" to = "-17417330#1" type="type1"></flow> 
<flow id = "r41" begin="0" end = "500" departLane="random" number = "5" from = "-688347308#2" to = "-14360292#4" type="type1"></flow> 
<flow id = "r42" begin="0" end = "500" departLane="random" number = "5" from = "-99500153#2" to = "126304941#9" type="type1"></flow> 
<flow id = "r43" begin="0" end = "500" departLane="random" number = "5" from = "3343976#9" to = "3991680#0" type="type1"></flow> 
<flow id = "r44" begin="0" end = "500" departLane="random" number = "5" from = "-302138410#0" to = "10296368#2" type="type1"></flow> 
<flow id = "r45" begin="0" end = "500" departLane="random" number = "5" from = "688600643#0" to = "-125835563#2" type="type1"></flow> 
<flow id = "r46" begin="0" end = "500" departLane="random" number = "5" from = "23832344" to = "-608715568#2" type="type1"></flow> 
<flow id = "r47" begin="0" end = "500" departLane="random" number = "5" from = "-99500153#2" to = "-229771672#6" type="type1"></flow> 
<flow id = "r48" begin="0" end = "500" departLane="random" number = "5" from = "-688347308#2" to = "-10672176" type="type1"></flow> 
<flow id = "r49" begin="0" end = "500" departLane="random" number = "5" from = "-290375126#4" to = "-123929657#1" type="type1"></flow> 
<flow id = "r50" begin="0" end = "500" departLane="random" number = "5" from = "-23157554#3" to = "-16383222#0" type="type1"></flow> 
<flow id = "r51" begin="0" end = "500" departLane="random" number = "5" from = "3343970#6" to = "125835524#0" type="type1"></flow> 
<flow id = "r52" begin="0" end = "500" departLane="random" number = "5" from = "3343976#9" to = "3343973#0" type="type1"></flow> 
<flow id = "r53" begin="0" end = "500" departLane="random" number = "5" from = "608754692#5" to = "-11302396#1" type="type1"></flow> 
<flow id = "r54" begin="0" end = "500" departLane="random" number = "5" from = "3343973#0" to = "-22675199#2" type="type1"></flow> 
<flow id = "r55" begin="0" end = "500" departLane="random" number = "5" from = "126679459#0" to = "-17410062#3" type="type1"></flow> 
<flow id = "r56" begin="0" end = "500" departLane="random" number = "5" from = "-742307325" to = "71407869#0" type="type1"></flow> 
<flow id = "r57" begin="0" end = "500" departLane="random" number = "5" from = "688600643#0" to = "-99500150#5" type="type1"></flow> 
<flow id = "r58" begin="0" end = "500" departLane="random" number = "5" from = "688600643#0" to = "-53063944#1" type="type1"></flow> 
<flow id = "r59" begin="0" end = "500" departLane="random" number = "5" from = "-320989025#3" to = "340093701" type="type1"></flow> 
<flow id = "r60" begin="0" end = "500" departLane="random" number = "5" from = "688600643#0" to = "126348346#6" type="type1"></flow> 
<flow id = "r61" begin="0" end = "500" departLane="random" number = "5" from = "174985125" to = "9826692#0" type="type1"></flow> 
<flow id = "r62" begin="0" end = "500" departLane="random" number = "5" from = "-662329847" to = "-85798761" type="type1"></flow> 
<flow id = "r63" begin="0" end = "500" departLane="random" number = "5" from = "8127688#0" to = "301992138#10" type="type1"></flow> 
<flow id = "r64" begin="0" end = "500" departLane="random" number = "5" from = "8127688#0" to = "-86985644#2" type="type1"></flow> 
<flow id = "r65" begin="0" end = "500" departLane="random" number = "5" from = "-608818920#2" to = "41404236" type="type1"></flow> 
<flow id = "r66" begin="0" end = "500" departLane="random" number = "5" from = "4884715" to = "89574079" type="type1"></flow> 
<flow id = "r67" begin="0" end = "500" departLane="random" number = "5" from = "25813260#0" to = "84696751" type="type1"></flow> 
<flow id = "r68" begin="0" end = "500" departLane="random" number = "5" from = "521257409#6" to = "-348273663#2" type="type1"></flow> 
<flow id = "r69" begin="0" end = "500" departLane="random" number = "5" from = "-320989025#3" to = "44949039#0" type="type1"></flow> 
<flow id = "r70" begin="0" end = "500" departLane="random" number = "5" from = "4061636#0" to = "351276438#0" type="type1"></flow> 
<flow id = "r71" begin="0" end = "500" departLane="random" number = "5" from = "126679459#0" to = "-1084093047" type="type1"></flow> 
<flow id = "r72" begin="0" end = "500" departLane="random" number = "5" from = "120086152" to = "-19568040#12" type="type1"></flow> 
<flow id = "r73" begin="0" end = "500" departLane="random" number = "5" from = "843534478#0" to = "-315514775#2" type="type1"></flow> 
<flow id = "r74" begin="0" end = "500" departLane="random" number = "5" from = "521257409#6" to = "-13824504" type="type1"></flow> 
<flow id = "r75" begin="0" end = "500" departLane="random" number = "5" from = "24471498#0" to = "174338458#1" type="type1"></flow> 
<flow id = "r76" begin="0" end = "500" departLane="random" number = "5" from = "126679459#0" to = "512610535#0" type="type1"></flow> 
<flow id = "r77" begin="0" end = "500" departLane="random" number = "5" from = "8412180#0" to = "-843033250#5" type="type1"></flow> 
<flow id = "r78" begin="0" end = "500" departLane="random" number = "5" from = "-25933423#4" to = "-3876851#5" type="type1"></flow> 
<flow id = "r79" begin="0" end = "500" departLane="random" number = "5" from = "-301615094#18" to = "284251317#1" type="type1"></flow> 
<flow id = "r80" begin="0" end = "500" departLane="random" number = "5" from = "125472523" to = "8127971#3" type="type1"></flow> 
<flow id = "r81" begin="0" end = "500" departLane="random" number = "5" from = "81457871#0" to = "726508762" type="type1"></flow> 
<flow id = "r82" begin="0" end = "500" departLane="random" number = "5" from = "430047989#6" to = "189453003#3" type="type1"></flow> 
<flow id = "r83" begin="0" end = "500" departLane="random" number = "5" from = "89873168" to = "-742307327#0" type="type1"></flow> 
<flow id = "r84" begin="0" end = "500" departLane="random" number = "5" from = "78627821" to = "340265976#0" type="type1"></flow> 
<flow id = "r85" begin="0" end = "500" departLane="random" number = "5" from = "-662329847" to = "-85798761" type="type1"></flow> 
<flow id = "r86" begin="0" end = "500" departLane="random" number = "5" from = "3677822#0" to = "3343974#2" type="type1"></flow> 
<flow id = "r87" begin="0" end = "500" departLane="random" number = "5" from = "33284921" to = "100599277#1" type="type1"></flow> 
<flow id = "r88" begin="0" end = "500" departLane="random" number = "5" from = "-99500153#2" to = "4061640#0" type="type1"></flow> 
<flow id = "r89" begin="0" end = "500" departLane="random" number = "5" from = "-124190277#3" to = "-3876851#0" type="type1"></flow> 
<flow id = "r90" begin="0" end = "500" departLane="random" number = "5" from = "-320989025#3" to = "-120125393#3" type="type1"></flow> 
<flow id = "r91" begin="0" end = "500" departLane="random" number = "5" from = "26410313#0" to = "622063652#0" type="type1"></flow> 
<flow id = "r92" begin="0" end = "500" departLane="random" number = "5" from = "608754692#5" to = "-126304929" type="type1"></flow> 
<flow id = "r93" begin="0" end = "500" departLane="random" number = "5" from = "3343954#0" to = "3991610#0" type="type1"></flow> 
<flow id = "r94" begin="0" end = "500" departLane="random" number = "5" from = "3677822#0" to = "48284227" type="type1"></flow> 
<flow id = "r95" begin="0" end = "500" departLane="random" number = "5" from = "-662329847" to = "10296368#2" type="type1"></flow> 
<flow id = "r96" begin="0" end = "500" departLane="random" number = "5" from = "521257409#6" to = "-24905455#4" type="type1"></flow> 
<flow id = "r97" begin="0" end = "500" departLane="random" number = "5" from = "3343973#0" to = "446474263#2" type="type1"></flow> 
<flow id = "r98" begin="0" end = "500" departLane="random" number = "5" from = "174985125" to = "15083398#0" type="type1"></flow> 
<flow id = "r99" begin="0" end = "500" departLane="random" number = "5" from = "-608715603" to = "9666347" type="type1"></flow> 
<flow id = "c0" begin="0" end = "500" departLane="random" number = "5" from = "-10362550#1" to = "3991635#0" type="type1"></flow> 
<flow id = "c1" begin="0" end = "500" departLane="random" number = "5" from = "-37713149#1" to = "3991635#0" type="type1"></flow> 
<flow id = "c2" begin="0" end = "500" departLane="random" number = "5" from = "3343970#6" to = "3991635#0" type="type1"></flow> 
<flow id = "c3" begin="0" end = "500" departLane="random" number = "5" from = "-37713149#1" to = "3991635#0" type="type1"></flow> 
<flow id = "c4" begin="0" end = "500" departLane="random" number = "5" from = "688600643#0" to = "3991635#0" type="type1"></flow> 
<flow id = "c5" begin="0" end = "500" departLane="random" number = "5" from = "79501548#0" to = "3991635#0" type="type1"></flow> 
<flow id = "c6" begin="0" end = "500" departLane="random" number = "5" from = "-521257400#1" to = "3991635#0" type="type1"></flow> 
<flow id = "c7" begin="0" end = "500" departLane="random" number = "5" from = "-99500153#2" to = "3991635#0" type="type1"></flow> 
<flow id = "c8" begin="0" end = "500" departLane="random" number = "5" from = "-608715603" to = "3991635#0" type="type1"></flow> 
<flow id = "c9" begin="0" end = "500" departLane="random" number = "5" from = "-688347308#2" to = "3991635#0" type="type1"></flow> 
<flow id = "c10" begin="0" end = "500" departLane="random" number = "5" from = "-25933423#4" to = "3991635#0" type="type1"></flow> 
<flow id = "c11" begin="0" end = "500" departLane="random" number = "5" from = "-608818920#2" to = "3991635#0" type="type1"></flow> 
<flow id = "c12" begin="0" end = "500" departLane="random" number = "5" from = "120086152" to = "3991635#0" type="type1"></flow> 
<flow id = "c13" begin="0" end = "500" departLane="random" number = "5" from = "112917249" to = "3991635#0" type="type1"></flow> 
<flow id = "c14" begin="0" end = "500" departLane="random" number = "5" from = "112917249" to = "3991635#0" type="type1"></flow> 
<flow id = "c15" begin="0" end = "500" departLane="random" number = "5" from = "-688347308#2" to = "3991635#0" type="type1"></flow> 
<flow id = "c16" begin="0" end = "500" departLane="random" number = "5" from = "8127688#0" to = "3991635#0" type="type1"></flow> 
<flow id = "c17" begin="0" end = "500" departLane="random" number = "5" from = "126679459#0" to = "3991635#0" type="type1"></flow> 
<flow id = "c18" begin="0" end = "500" departLane="random" number = "5" from = "-3869812#0" to = "3991635#0" type="type1"></flow> 
<flow id = "c19" begin="0" end = "500" departLane="random" number = "5" from = "3343973#0" to = "3991635#0" type="type1"></flow> 
<flow id = "c20" begin="0" end = "500" departLane="random" number = "5" from = "-37713149#1" to = "3991635#0" type="type1"></flow> 
<flow id = "c21" begin="0" end = "500" departLane="random" number = "5" from = "-742307325" to = "3991635#0" type="type1"></flow> 
<flow id = "c22" begin="0" end = "500" departLane="random" number = "5" from = "78627821" to = "3991635#0" type="type1"></flow> 
<flow id = "c23" begin="0" end = "500" departLane="random" number = "5" from = "-3869812#0" to = "3991635#0" type="type1"></flow> 
<flow id = "c24" begin="0" end = "500" departLane="random" number = "5" from = "-742307325" to = "3991635#0" type="type1"></flow> 
<flow id = "c25" begin="0" end = "500" departLane="random" number = "5" from = "-320989025#3" to = "3991635#0" type="type1"></flow> 
<flow id = "c26" begin="0" end = "500" departLane="random" number = "5" from = "3869830#2" to = "3991635#0" type="type1"></flow> 
<flow id = "c27" begin="0" end = "500" departLane="random" number = "5" from = "-3869812#0" to = "3991635#0" type="type1"></flow> 
<flow id = "c28" begin="0" end = "500" departLane="random" number = "5" from = "-43548669" to = "3991635#0" type="type1"></flow> 
<flow id = "c29" begin="0" end = "500" departLane="random" number = "5" from = "-302138410#0" to = "3991635#0" type="type1"></flow> 
<flow id = "c30" begin="0" end = "500" departLane="random" number = "5" from = "608754692#5" to = "3991635#0" type="type1"></flow> 
<flow id = "c31" begin="0" end = "500" departLane="random" number = "5" from = "4884715" to = "3991635#0" type="type1"></flow> 
<flow id = "c32" begin="0" end = "500" departLane="random" number = "5" from = "174985125" to = "3991635#0" type="type1"></flow> 
<flow id = "c33" begin="0" end = "500" departLane="random" number = "5" from = "-320989025#3" to = "3991635#0" type="type1"></flow> 
<flow id = "c34" begin="0" end = "500" departLane="random" number = "5" from = "-99500153#2" to = "3991635#0" type="type1"></flow> 
<flow id = "c35" begin="0" end = "500" departLane="random" number = "5" from = "23832344" to = "3991635#0" type="type1"></flow> 
<flow id = "c36" begin="0" end = "500" departLane="random" number = "5" from = "-3869812#0" to = "3991635#0" type="type1"></flow> 
<flow id = "c37" begin="0" end = "500" departLane="random" number = "5" from = "26410313#0" to = "3991635#0" type="type1"></flow> 
<flow id = "c38" begin="0" end = "500" departLane="random" number = "5" from = "-662329847" to = "3991635#0" type="type1"></flow> 
<flow id = "c39" begin="0" end = "500" departLane="random" number = "5" from = "-662329847" to = "3991635#0" type="type1"></flow> 
<flow id = "c40" begin="0" end = "500" departLane="random" number = "5" from = "26410313#0" to = "3991635#0" type="type1"></flow> 
<flow id = "c41" begin="0" end = "500" departLane="random" number = "5" from = "-688347308#2" to = "3991635#0" type="type1"></flow> 
<flow id = "c42" begin="0" end = "500" departLane="random" number = "5" from = "-99500153#2" to = "3991635#0" type="type1"></flow> 
<flow id = "c43" begin="0" end = "500" departLane="random" number = "5" from = "3343976#9" to = "3991635#0" type="type1"></flow> 
<flow id = "c44" begin="0" end = "500" departLane="random" number = "5" from = "-302138410#0" to = "3991635#0" type="type1"></flow> 
<flow id = "c45" begin="0" end = "500" departLane="random" number = "5" from = "688600643#0" to = "3991635#0" type="type1"></flow> 
<flow id = "c46" begin="0" end = "500" departLane="random" number = "5" from = "23832344" to = "3991635#0" type="type1"></flow> 
<flow id = "c47" begin="0" end = "500" departLane="random" number = "5" from = "-99500153#2" to = "3991635#0" type="type1"></flow> 
<flow id = "c48" begin="0" end = "500" departLane="random" number = "5" from = "-688347308#2" to = "3991635#0" type="type1"></flow> 
<flow id = "c49" begin="0" end = "500" departLane="random" number = "5" from = "-290375126#4" to = "3991635#0" type="type1"></flow> 
<flow id = "c50" begin="0" end = "500" departLane="random" number = "5" from = "-23157554#3" to = "3991635#0" type="type1"></flow> 
<flow id = "c51" begin="0" end = "500" departLane="random" number = "5" from = "3343970#6" to = "3991635#0" type="type1"></flow> 
<flow id = "c52" begin="0" end = "500" departLane="random" number = "5" from = "3343976#9" to = "3991635#0" type="type1"></flow> 
<flow id = "c53" begin="0" end = "500" departLane="random" number = "5" from = "608754692#5" to = "3991635#0" type="type1"></flow> 
<flow id = "c54" begin="0" end = "500" departLane="random" number = "5" from = "3343973#0" to = "3991635#0" type="type1"></flow> 
<flow id = "c55" begin="0" end = "500" departLane="random" number = "5" from = "126679459#0" to = "3991635#0" type="type1"></flow> 
<flow id = "c56" begin="0" end = "500" departLane="random" number = "5" from = "-742307325" to = "3991635#0" type="type1"></flow> 
<flow id = "c57" begin="0" end = "500" departLane="random" number = "5" from = "688600643#0" to = "3991635#0" type="type1"></flow> 
<flow id = "c58" begin="0" end = "500" departLane="random" number = "5" from = "688600643#0" to = "3991635#0" type="type1"></flow> 
<flow id = "c59" begin="0" end = "500" departLane="random" number = "5" from = "-320989025#3" to = "3991635#0" type="type1"></flow> 
<flow id = "c60" begin="0" end = "500" departLane="random" number = "5" from = "688600643#0" to = "3991635#0" type="type1"></flow> 
<flow id = "c61" begin="0" end = "500" departLane="random" number = "5" from = "174985125" to = "3991635#0" type="type1"></flow> 
<flow id = "c62" begin="0" end = "500" departLane="random" number = "5" from = "-662329847" to = "3991635#0" type="type1"></flow> 
<flow id = "c63" begin="0" end = "500" departLane="random" number = "5" from = "8127688#0" to = "3991635#0" type="type1"></flow> 
<flow id = "c64" begin="0" end = "500" departLane="random" number = "5" from = "8127688#0" to = "3991635#0" type="type1"></flow> 
<flow id = "c65" begin="0" end = "500" departLane="random" number = "5" from = "-608818920#2" to = "3991635#0" type="type1"></flow> 
<flow id = "c66" begin="0" end = "500" departLane="random" number = "5" from = "4884715" to = "3991635#0" type="type1"></flow> 
<flow id = "c67" begin="0" end = "500" departLane="random" number = "5" from = "25813260#0" to = "3991635#0" type="type1"></flow> 
<flow id = "c68" begin="0" end = "500" departLane="random" number = "5" from = "521257409#6" to = "3991635#0" type="type1"></flow> 
<flow id = "c69" begin="0" end = "500" departLane="random" number = "5" from = "-320989025#3" to = "3991635#0" type="type1"></flow> 
<flow id = "c70" begin="0" end = "500" departLane="random" number = "5" from = "4061636#0" to = "3991635#0" type="type1"></flow> 
<flow id = "c71" begin="0" end = "500" departLane="random" number = "5" from = "126679459#0" to = "3991635#0" type="type1"></flow> 
<flow id = "c72" begin="0" end = "500" departLane="random" number = "5" from = "120086152" to = "3991635#0" type="type1"></flow> 
<flow id = "c73" begin="0" end = "500" departLane="random" number = "5" from = "843534478#0" to = "3991635#0" type="type1"></flow> 
<flow id = "c74" begin="0" end = "500" departLane="random" number = "5" from = "521257409#6" to = "3991635#0" type="type1"></flow> 
<flow id = "c75" begin="0" end = "500" departLane="random" number = "5" from = "24471498#0" to = "3991635#0" type="type1"></flow> 
<flow id = "c76" begin="0" end = "500" departLane="random" number = "5" from = "126679459#0" to = "3991635#0" type="type1"></flow> 
<flow id = "c77" begin="0" end = "500" departLane="random" number = "5" from = "8412180#0" to = "3991635#0" type="type1"></flow> 
<flow id = "c78" begin="0" end = "500" departLane="random" number = "5" from = "-25933423#4" to = "3991635#0" type="type1"></flow> 
<flow id = "c79" begin="0" end = "500" departLane="random" number = "5" from = "-301615094#18" to = "3991635#0" type="type1"></flow> 
<flow id = "c80" begin="0" end = "500" departLane="random" number = "5" from = "125472523" to = "3991635#0" type="type1"></flow> 
<flow id = "c81" begin="0" end = "500" departLane="random" number = "5" from = "81457871#0" to = "3991635#0" type="type1"></flow> 
<flow id = "c82" begin="0" end = "500" departLane="random" number = "5" from = "430047989#6" to = "3991635#0" type="type1"></flow> 
<flow id = "c83" begin="0" end = "500" departLane="random" number = "5" from = "89873168" to = "3991635#0" type="type1"></flow> 
<flow id = "c84" begin="0" end = "500" departLane="random" number = "5" from = "78627821" to = "3991635#0" type="type1"></flow> 
<flow id = "c85" begin="0" end = "500" departLane="random" number = "5" from = "-662329847" to = "3991635#0" type="type1"></flow> 
<flow id = "c86" begin="0" end = "500" departLane="random" number = "5" from = "3677822#0" to = "3991635#0" type="type1"></flow> 
<flow id = "c87" begin="0" end = "500" departLane="random" number = "5" from = "33284921" to = "3991635#0" type="type1"></flow> 
<flow id = "c88" begin="0" end = "500" departLane="random" number = "5" from = "-99500153#2" to = "3991635#0" type="type1"></flow> 
<flow id = "c89" begin="0" end = "500" departLane="random" number = "5" from = "-124190277#3" to = "3991635#0" type="type1"></flow> 
<flow id = "c90" begin="0" end = "500" departLane="random" number = "5" from = "-320989025#3" to = "3991635#0" type="type1"></flow> 
<flow id = "c91" begin="0" end = "500" departLane="random" number = "5" from = "26410313#0" to = "3991635#0" type="type1"></flow> 
<flow id = "c92" begin="0" end = "500" departLane="random" number = "5" from = "608754692#5" to = "3991635#0" type="type1"></flow> 
<flow id = "c93" begin="0" end = "500" departLane="random" number = "5" from = "3343954#0" to = "3991635#0" type="type1"></flow> 
<flow id = "c94" begin="0" end = "500" departLane="random" number = "5" from = "3677822#0" to = "3991635#0" type="type1"></flow> 
<flow id = "c95" begin="0" end = "500" departLane="random" number = "5" from = "-662329847" to = "3991635#0" type="type1"></flow> 
<flow id = "c96" begin="0" end = "500" departLane="random" number = "5" from = "521257409#6" to = "3991635#0" type="type1"></flow> 
<flow id = "c97" begin="0" end = "500" departLane="random" number = "5" from = "3343973#0" to = "3991635#0" type="type1"></flow> 
<flow id = "c98" begin="0" end = "500" departLane="random" number = "5" from = "174985125" to = "3991635#0" type="type1"></flow> 
<flow id = "c99" begin="0" end = "500" departLane="random" number = "5" from = "-608715603" to = "3991635#0" type="type1"></flow> 
</routes>