<?xml version="1.0" encoding="UTF-8"?>

<!-- generated on 2024-01-12 14:32:03.662846 by osmWebWizard.py v1_19_0+0000-baa66a0f364
<configuration>
    <net-file value="C:\Users\and99\2024-01-12-14-29-23\osm.net.xml.gz"/>
    <output-trip-file value="C:\Users\and99\2024-01-12-14-29-23\osm.passenger.trips.xml"/>
    <route-file value="C:\Users\and99\2024-01-12-14-29-23\osm.passenger.rou.xml"/>
    <prefix value="veh"/>
    <trip-attributes value="departLane=&quot;best&quot;"/>
    <fringe-start-attributes value="departSpeed=&quot;max&quot;"/>
    <vehicle-class value="passenger"/>
    <lanes value="True"/>
    <fringe-factor value="5"/>
    <allow-fringe.min-length value="1000.0"/>
    <via-edge-types value="highway.motorway,highway.motorway_link,highway.trunk_link,highway.primary_link,highway.secondary_link,highway.tertiary_link"/>
    <min-distance value="300.0"/>
    <min-distance.fringe value="10.0"/>
    <remove-loops value="True"/>
    <validate value="True"/>
    <insertion-density value="12.0"/>
</configuration>
-->

<!-- generated on 2024-01-12 14:31:13 by Eclipse SUMO duarouter Version 1.19.0
<configuration xmlns:xsi="http://www.w3.org/2001/XMLSchema-instance" xsi:noNamespaceSchemaLocation="http://sumo.dlr.de/xsd/duarouterConfiguration.xsd">

    <input>
        <net-file value="C:\Users\and99\2024-01-12-14-29-23\osm.net.xml.gz"/>
        <route-files value="C:\Users\and99\2024-01-12-14-29-23\osm.passenger.trips.xml"/>
    </input>

    <output>
        <output-file value="C:\Users\and99\2024-01-12-14-29-23\osm.passenger.trips.xml.tmp"/>
        <alternatives-output value="NUL"/>
        <write-trips value="true"/>
    </output>

    <processing>
        <remove-loops value="true"/>
    </processing>

    <time>
        <begin value="0.0"/>
        <end value="3600.0"/>
    </time>

    <report>
        <no-warnings value="true"/>
        <ignore-errors value="true"/>
        <no-step-log value="true"/>
    </report>

</configuration>
-->

<routes xmlns:xsi="http://www.w3.org/2001/XMLSchema-instance" xsi:noNamespaceSchemaLocation="http://sumo.dlr.de/xsd/routes_file.xsd">
    <vType id="veh_passenger" vClass="passenger"/>
    <trip id="veh0" type="veh_passenger" depart="0.00" departLane="best" from="22356913#2" to="-11298651"/>
    <trip id="veh2" type="veh_passenger" depart="0.48" departLane="best" from="-301636906#8" to="28352735#1"/>
    <trip id="veh3" type="veh_passenger" depart="0.73" departLane="best" from="-67413197" to="-15238490#2"/>
    <trip id="veh4" type="veh_passenger" depart="0.97" departLane="best" departSpeed="max" from="-8129243" to="11616990"/>
    <trip id="veh5" type="veh_passenger" depart="1.21" departLane="best" departSpeed="max" from="-26124786#1" to="15081954#2"/>
    <trip id="veh6" type="veh_passenger" depart="1.45" departLane="best" departSpeed="max" from="-11029553#3" to="-293517562#1"/>
    <trip id="veh7" type="veh_passenger" depart="1.69" departLane="best" departSpeed="max" from="22902307" to="19169102#2"/>
    <trip id="veh8" type="veh_passenger" depart="1.94" departLane="best" departSpeed="max" from="-261749240" to="22902477#5"/>
    <trip id="veh9" type="veh_passenger" depart="2.18" departLane="best" from="3869799#0" to="-1044729458#1"/>
    <trip id="veh10" type="veh_passenger" depart="2.42" departLane="best" departSpeed="max" from="38207959" to="301909104"/>
    <trip id="veh11" type="veh_passenger" depart="2.66" departLane="best" departSpeed="max" from="-42933218" to="23889529#0"/>
    <trip id="veh12" type="veh_passenger" depart="2.90" departLane="best" from="886815612" to="8177668#0"/>
    <trip id="veh13" type="veh_passenger" depart="3.14" departLane="best" departSpeed="max" from="-147850154#2" to="-173087313#2"/>
    <trip id="veh14" type="veh_passenger" depart="3.39" departLane="best" from="455505771#1" to="23120851#0"/>
    <trip id="veh15" type="veh_passenger" depart="3.63" departLane="best" departSpeed="max" from="38208848" to="-3390199#5"/>
    <trip id="veh16" type="veh_passenger" depart="3.87" departLane="best" from="124754547#2" to="93647804#1"/>
    <trip id="veh17" type="veh_passenger" depart="4.11" departLane="best" from="-608715591" to="192689379"/>
    <trip id="veh18" type="veh_passenger" depart="4.35" departLane="best" from="42929470#1" to="23889543#1"/>
    <trip id="veh19" type="veh_passenger" depart="4.60" departLane="best" from="517279286" to="22360835#0"/>
    <trip id="veh20" type="veh_passenger" depart="4.84" departLane="best" from="267611789" to="-123929615#1"/>
    <trip id="veh21" type="veh_passenger" depart="5.08" departLane="best" departSpeed="max" from="-27228868#1" to="-542249303#1"/>
    <trip id="veh22" type="veh_passenger" depart="5.32" departLane="best" from="13799526#0" to="-351276444#1"/>
    <trip id="veh23" type="veh_passenger" depart="5.56" departLane="best" from="-15215915#4" to="4858452#3"/>
    <trip id="veh24" type="veh_passenger" depart="5.81" departLane="best" departSpeed="max" from="207002742" to="-95974716#0"/>
    <trip id="veh25" type="veh_passenger" depart="6.05" departLane="best" departSpeed="max" from="-55447932#1" to="-31058512#0"/>
    <trip id="veh26" type="veh_passenger" depart="6.29" departLane="best" departSpeed="max" from="-311628795#3" to="8302412#3"/>
    <trip id="veh27" type="veh_passenger" depart="6.53" departLane="best" departSpeed="max" from="228638295#0" to="23237287#0"/>
    <trip id="veh28" type="veh_passenger" depart="6.77" departLane="best" departSpeed="max" from="-22906143" to="3390189"/>
    <trip id="veh29" type="veh_passenger" depart="7.01" departLane="best" from="22712874#1" to="1012971579"/>
    <trip id="veh30" type="veh_passenger" depart="7.26" departLane="best" departSpeed="max" from="9810433#0" to="25801768"/>
    <trip id="veh31" type="veh_passenger" depart="7.50" departLane="best" from="132580428" to="292347070"/>
    <trip id="veh32" type="veh_passenger" depart="7.74" departLane="best" from="443972008#1" to="3752559#0"/>
    <trip id="veh33" type="veh_passenger" depart="7.98" departLane="best" from="-27566523#1" to="1177332103"/>
    <trip id="veh34" type="veh_passenger" depart="8.22" departLane="best" from="-384910286#1" to="-43547541"/>
    <trip id="veh35" type="veh_passenger" depart="8.47" departLane="best" departSpeed="max" from="-25806808#1" to="85080911"/>
    <trip id="veh36" type="veh_passenger" depart="8.71" departLane="best" from="-655251291" to="-72360112#1"/>
    <trip id="veh37" type="veh_passenger" depart="8.95" departLane="best" from="229771672#0" to="105447710#2"/>
    <trip id="veh38" type="veh_passenger" depart="9.19" departLane="best" from="78685969" to="126304931"/>
    <trip id="veh39" type="veh_passenger" depart="9.43" departLane="best" departSpeed="max" from="-310961079" to="-38207959"/>
    <trip id="veh40" type="veh_passenger" depart="9.68" departLane="best" departSpeed="max" from="135401596" to="430645757#0"/>
    <trip id="veh41" type="veh_passenger" depart="9.92" departLane="best" departSpeed="max" from="151375617#0" to="76185331"/>
    <trip id="veh42" type="veh_passenger" depart="10.16" departLane="best" from="-725072191" to="327293825#1"/>
    <trip id="veh43" type="veh_passenger" depart="10.40" departLane="best" from="-9932327#6" to="15238492#0"/>
    <trip id="veh44" type="veh_passenger" depart="10.64" departLane="best" from="14556532#2" to="-125133233#1"/>
    <trip id="veh45" type="veh_passenger" depart="10.88" departLane="best" from="-16766888#0" to="24374650#1"/>
    <trip id="veh46" type="veh_passenger" depart="11.13" departLane="best" departSpeed="max" from="36532841#0" to="11297788#0"/>
    <trip id="veh47" type="veh_passenger" depart="11.37" departLane="best" departSpeed="max" from="-126304949#3" to="10156323#0"/>
    <trip id="veh48" type="veh_passenger" depart="11.61" departLane="best" from="9932318#2" to="174985125"/>
    <trip id="veh49" type="veh_passenger" depart="11.85" departLane="best" departSpeed="max" from="9387193#0" to="578662094#1"/>
    <trip id="veh50" type="veh_passenger" depart="12.09" departLane="best" departSpeed="max" from="-104794419" to="3343956#0"/>
    <trip id="veh51" type="veh_passenger" depart="12.34" departLane="best" from="24355430#0" to="181347885#1"/>
    <trip id="veh52" type="veh_passenger" depart="12.58" departLane="best" from="311042988" to="25806800"/>
    <trip id="veh53" type="veh_passenger" depart="12.82" departLane="best" from="-16925932#2" to="11972005"/>
    <trip id="veh54" type="veh_passenger" depart="13.06" departLane="best" from="-92130714#1" to="87240824#7"/>
    <trip id="veh56" type="veh_passenger" depart="13.55" departLane="best" from="1085888987" to="267611788#5"/>
    <trip id="veh57" type="veh_passenger" depart="13.79" departLane="best" departSpeed="max" from="78219548" to="-6235181#1"/>
    <trip id="veh58" type="veh_passenger" depart="14.03" departLane="best" departSpeed="max" from="-3681283#2" to="25745109"/>
    <trip id="veh59" type="veh_passenger" depart="14.27" departLane="best" from="17974344" to="-235038262"/>
    <trip id="veh60" type="veh_passenger" depart="14.51" departLane="best" from="3343976#0" to="18491551#0"/>
    <trip id="veh61" type="veh_passenger" depart="14.76" departLane="best" from="344507814#0" to="17505382"/>
    <trip id="veh62" type="veh_passenger" depart="15.00" departLane="best" departSpeed="max" from="-100599266#2" to="-23121879"/>
    <trip id="veh63" type="veh_passenger" depart="15.24" departLane="best" departSpeed="max" from="-10682326#1" to="8131717#6"/>
    <trip id="veh64" type="veh_passenger" depart="15.48" departLane="best" from="608715541" to="456815188#0"/>
    <trip id="veh65" type="veh_passenger" depart="15.72" departLane="best" departSpeed="max" from="-3752545" to="-126545572#0"/>
    <trip id="veh66" type="veh_passenger" depart="15.96" departLane="best" from="607917130" to="3677327"/>
    <trip id="veh67" type="veh_passenger" depart="16.21" departLane="best" from="-141114449" to="14038033"/>
    <trip id="veh68" type="veh_passenger" depart="16.45" departLane="best" from="-13060490#1" to="3677330#0"/>
    <trip id="veh69" type="veh_passenger" depart="16.69" departLane="best" from="3372477" to="225605571"/>
    <trip id="veh70" type="veh_passenger" depart="16.93" departLane="best" from="99416796" to="192659011"/>
    <trip id="veh71" type="veh_passenger" depart="17.17" departLane="best" from="310966922#0" to="637839684"/>
    <trip id="veh72" type="veh_passenger" depart="17.42" departLane="best" departSpeed="max" from="-8129247" to="-311007042#3"/>
    <trip id="veh73" type="veh_passenger" depart="17.66" departLane="best" from="-125835552#7" to="3390201"/>
    <trip id="veh74" type="veh_passenger" depart="17.90" departLane="best" from="-24374650#0" to="-70006864"/>
    <trip id="veh75" type="veh_passenger" depart="18.14" departLane="best" from="9904060#4" to="26124786#0"/>
    <trip id="veh76" type="veh_passenger" depart="18.38" departLane="best" from="8568194#4" to="16765834"/>
    <trip id="veh77" type="veh_passenger" depart="18.63" departLane="best" from="-17767536#2" to="-3390199#8"/>
    <trip id="veh78" type="veh_passenger" depart="18.87" departLane="best" departSpeed="max" from="-42933211" to="22902246"/>
    <trip id="veh79" type="veh_passenger" depart="19.11" departLane="best" from="27625554" to="-329520589"/>
    <trip id="veh80" type="veh_passenger" depart="19.35" departLane="best" departSpeed="max" from="-131480746" to="24476910"/>
    <trip id="veh81" type="veh_passenger" depart="19.59" departLane="best" from="-27566523#0" to="-29013123#1"/>
    <trip id="veh82" type="veh_passenger" depart="19.83" departLane="best" from="510790348" to="-13865435#0"/>
    <trip id="veh83" type="veh_passenger" depart="20.08" departLane="best" departSpeed="max" from="-279800095" to="27656515"/>
    <trip id="veh84" type="veh_passenger" depart="20.32" departLane="best" departSpeed="max" from="-25941709" to="-227990162#1"/>
    <trip id="veh85" type="veh_passenger" depart="20.56" departLane="best" from="81521643#1" to="20608530#0"/>
    <trip id="veh86" type="veh_passenger" depart="20.80" departLane="best" departSpeed="max" from="-9932321" to="-3869799#1"/>
    <trip id="veh87" type="veh_passenger" depart="21.04" departLane="best" departSpeed="max" from="38241794#0" to="-283105046"/>
    <trip id="veh88" type="veh_passenger" depart="21.29" departLane="best" from="-149116010#1" to="-1177332106#2"/>
    <trip id="veh89" type="veh_passenger" depart="21.53" departLane="best" from="-8129248" to="127840242#5"/>
    <trip id="veh90" type="veh_passenger" depart="21.77" departLane="best" from="292472283" to="28313549#0"/>
    <trip id="veh91" type="veh_passenger" depart="22.01" departLane="best" departSpeed="max" from="965194179" to="17414466#6"/>
    <trip id="veh92" type="veh_passenger" depart="22.25" departLane="best" from="-75408625#2" to="-8412197#4"/>
    <trip id="veh93" type="veh_passenger" depart="22.50" departLane="best" from="512610535#0" to="-384872651#0"/>
    <trip id="veh94" type="veh_passenger" depart="22.74" departLane="best" from="23707215#0" to="-123934118#2"/>
    <trip id="veh95" type="veh_passenger" depart="22.98" departLane="best" departSpeed="max" from="-8129243" to="292347116#0"/>
    <trip id="veh96" type="veh_passenger" depart="23.22" departLane="best" from="890217976#0" to="8129909#0"/>
    <trip id="veh97" type="veh_passenger" depart="23.46" departLane="best" from="-87240821#5" to="586268890#0"/>
    <trip id="veh98" type="veh_passenger" depart="23.70" departLane="best" from="126304969#0" to="-125835581#1"/>
    <trip id="veh99" type="veh_passenger" depart="23.95" departLane="best" from="102139637" to="48446148"/>
    <trip id="veh100" type="veh_passenger" depart="24.19" departLane="best" from="9262295#6" to="8130896"/>
    <trip id="veh101" type="veh_passenger" depart="24.43" departLane="best" departSpeed="max" from="458546718" to="25629947#0"/>
    <trip id="veh102" type="veh_passenger" depart="24.67" departLane="best" from="-103917268" to="-316395269#4"/>
    <trip id="veh103" type="veh_passenger" depart="24.91" departLane="best" from="-742307327#0" to="-12705612#1"/>
    <trip id="veh104" type="veh_passenger" depart="25.16" departLane="best" from="-608743876" to="9714266#0"/>
    <trip id="veh105" type="veh_passenger" depart="25.40" departLane="best" from="-311006955#0" to="386825255"/>
    <trip id="veh106" type="veh_passenger" depart="25.64" departLane="best" from="-92326679#1" to="11372941"/>
    <trip id="veh107" type="veh_passenger" depart="25.88" departLane="best" from="886816858" to="9932321"/>
    <trip id="veh108" type="veh_passenger" depart="26.12" departLane="best" from="-131480743#1" to="332038253#2"/>
    <trip id="veh109" type="veh_passenger" depart="26.37" departLane="best" departSpeed="max" from="-20891358#1" to="-608715568#2"/>
    <trip id="veh110" type="veh_passenger" depart="26.61" departLane="best" from="9262295#3" to="22575807"/>
    <trip id="veh111" type="veh_passenger" depart="26.85" departLane="best" from="125835607" to="345381438#0"/>
    <trip id="veh112" type="veh_passenger" depart="27.09" departLane="best" departSpeed="max" from="-125133232" to="22715872#0"/>
    <trip id="veh113" type="veh_passenger" depart="27.33" departLane="best" from="11029282#0" to="541467950#0"/>
    <trip id="veh114" type="veh_passenger" depart="27.58" departLane="best" from="-22358449#0" to="886816863"/>
    <trip id="veh115" type="veh_passenger" depart="27.82" departLane="best" from="-13799528#1" to="-27625988#0"/>
    <trip id="veh116" type="veh_passenger" depart="28.06" departLane="best" from="16383222#1" to="28351510"/>
    <trip id="veh117" type="veh_passenger" depart="28.30" departLane="best" departSpeed="max" from="-27646579#2" to="19569387"/>
    <trip id="veh118" type="veh_passenger" depart="28.54" departLane="best" from="662329857" to="38198917#0"/>
    <trip id="veh119" type="veh_passenger" depart="28.78" departLane="best" from="16302926#3" to="23911554"/>
    <trip id="veh120" type="veh_passenger" depart="29.03" departLane="best" departSpeed="max" from="-8128927#13" to="-22715871#2"/>
    <trip id="veh121" type="veh_passenger" depart="29.27" departLane="best" from="-1198558985#2" to="818897057"/>
    <trip id="veh122" type="veh_passenger" depart="29.51" departLane="best" from="-24476912#1" to="327293825#0"/>
    <trip id="veh123" type="veh_passenger" depart="29.75" departLane="best" from="-282276412" to="105447739#2"/>
    <trip id="veh124" type="veh_passenger" depart="29.99" departLane="best" from="234911913" to="125835594#0"/>
    <trip id="veh125" type="veh_passenger" depart="30.24" departLane="best" departSpeed="max" from="-384911849#1" to="348273663#0"/>
    <trip id="veh126" type="veh_passenger" depart="30.48" departLane="best" departSpeed="max" from="13242369#0" to="126304922#1"/>
    <trip id="veh127" type="veh_passenger" depart="30.72" departLane="best" from="99346742#0" to="9932327#0"/>
    <trip id="veh128" type="veh_passenger" depart="30.96" departLane="best" departSpeed="max" from="-132580432#1" to="-315514775#0"/>
    <trip id="veh129" type="veh_passenger" depart="31.20" departLane="best" from="-311006955#0" to="81457873#0"/>
    <trip id="veh130" type="veh_passenger" depart="31.45" departLane="best" from="-326736768#4" to="67413194#1"/>
    <trip id="veh131" type="veh_passenger" depart="31.69" departLane="best" from="-55447816#3" to="-23950464"/>
    <trip id="veh133" type="veh_passenger" depart="32.17" departLane="best" from="18494053#0" to="978105833"/>
    <trip id="veh134" type="veh_passenger" depart="32.41" departLane="best" departSpeed="max" from="22911711" to="-105145353#0"/>
    <trip id="veh135" type="veh_passenger" depart="32.65" departLane="best" from="3991635#0" to="292472287#1"/>
    <trip id="veh136" type="veh_passenger" depart="32.90" departLane="best" from="-23119518#4" to="8402598#0"/>
    <trip id="veh137" type="veh_passenger" depart="33.14" departLane="best" from="-192359875#2" to="-192706272#3"/>
    <trip id="veh138" type="veh_passenger" depart="33.38" departLane="best" from="-16302267" to="19429654"/>
    <trip id="veh139" type="veh_passenger" depart="33.62" departLane="best" from="326736761" to="23121276"/>
    <trip id="veh140" type="veh_passenger" depart="33.86" departLane="best" from="-279689765" to="-301909102#1"/>
    <trip id="veh142" type="veh_passenger" depart="34.35" departLane="best" from="1047365121#0" to="79022450"/>
    <trip id="veh143" type="veh_passenger" depart="34.59" departLane="best" departSpeed="max" from="450580119" to="-16765831"/>
    <trip id="veh144" type="veh_passenger" depart="34.83" departLane="best" from="-8129248" to="-48446710"/>
    <trip id="veh145" type="veh_passenger" depart="35.07" departLane="best" from="10155487#6" to="3731775"/>
    <trip id="veh146" type="veh_passenger" depart="35.32" departLane="best" departSpeed="max" from="20895843#0" to="429571922#0"/>
    <trip id="veh147" type="veh_passenger" depart="35.56" departLane="best" departSpeed="max" from="30892902#0" to="192689376-AddedOnRampEdge"/>
    <trip id="veh148" type="veh_passenger" depart="35.80" departLane="best" departSpeed="max" from="-8131995" to="339533459"/>
    <trip id="veh150" type="veh_passenger" depart="36.28" departLane="best" from="723240771#0" to="192359875#3"/>
    <trip id="veh151" type="veh_passenger" depart="36.53" departLane="best" departSpeed="max" from="43111780" to="22675199#0"/>
    <trip id="veh152" type="veh_passenger" depart="36.77" departLane="best" from="-194820312" to="-22360638#1"/>
    <trip id="veh153" type="veh_passenger" depart="37.01" departLane="best" departSpeed="max" from="-3752552#5" to="-76568205#5"/>
    <trip id="veh154" type="veh_passenger" depart="37.25" departLane="best" from="3701208#0" to="578662094#1"/>
    <trip id="veh155" type="veh_passenger" depart="37.49" departLane="best" from="694554097#0" to="-31092162#2"/>
    <trip id="veh156" type="veh_passenger" depart="37.73" departLane="best" departSpeed="max" from="-292056886" to="-17974344"/>
    <trip id="veh157" type="veh_passenger" depart="37.98" departLane="best" from="344507819#1" to="688341961#1"/>
    <trip id="veh158" type="veh_passenger" depart="38.22" departLane="best" departSpeed="max" from="-77762137#3" to="23926667#1"/>
    <trip id="veh159" type="veh_passenger" depart="38.46" departLane="best" from="-20872027#5" to="8132429"/>
    <trip id="veh160" type="veh_passenger" depart="38.70" departLane="best" from="-531709659#1" to="94875151#1"/>
    <trip id="veh161" type="veh_passenger" depart="38.94" departLane="best" departSpeed="max" from="3869822" to="687562556#1"/>
    <trip id="veh162" type="veh_passenger" depart="39.19" departLane="best" departSpeed="max" from="-1102365697" to="340093663"/>
    <trip id="veh163" type="veh_passenger" depart="39.43" departLane="best" departSpeed="max" from="-414793747" to="81351856"/>
    <trip id="veh164" type="veh_passenger" depart="39.67" departLane="best" from="3752554#2" to="-264864065"/>
    <trip id="veh165" type="veh_passenger" depart="39.91" departLane="best" departSpeed="max" from="-3869822" to="-43547536#0"/>
    <trip id="veh166" type="veh_passenger" depart="40.15" departLane="best" from="35575573#2" to="-189453003#0"/>
    <trip id="veh167" type="veh_passenger" depart="40.40" departLane="best" departSpeed="max" from="55801541#0" to="569969131"/>
    <trip id="veh168" type="veh_passenger" depart="40.64" departLane="best" departSpeed="max" from="-26410168" to="430645446#0"/>
    <trip id="veh169" type="veh_passenger" depart="40.88" departLane="best" from="-9522644#3" to="662329857"/>
    <trip id="veh170" type="veh_passenger" depart="41.12" departLane="best" from="3701203#3" to="-340265966"/>
    <trip id="veh171" type="veh_passenger" depart="41.36" departLane="best" departSpeed="max" from="-1090593565" to="-28352759"/>
    <trip id="veh172" type="veh_passenger" depart="41.60" departLane="best" departSpeed="max" from="-4001978#2" to="608715568#1"/>
    <trip id="veh173" type="veh_passenger" depart="41.85" departLane="best" from="-92326664#0" to="-4859483"/>
    <trip id="veh174" type="veh_passenger" depart="42.09" departLane="best" from="22360829#15" to="10649854#0"/>
    <trip id="veh175" type="veh_passenger" depart="42.33" departLane="best" departSpeed="max" from="955063813" to="-18091377"/>
    <trip id="veh176" type="veh_passenger" depart="42.57" departLane="best" from="843033243#0" to="10672031"/>
    <trip id="veh177" type="veh_passenger" depart="42.81" departLane="best" from="93647802#0" to="-267611788#3"/>
    <trip id="veh178" type="veh_passenger" depart="43.06" departLane="best" departSpeed="max" from="89804964#0" to="-43547521#0"/>
    <trip id="veh179" type="veh_passenger" depart="43.30" departLane="best" departSpeed="max" from="-16613655" to="11970468"/>
    <trip id="veh180" type="veh_passenger" depart="43.54" departLane="best" from="292347113#0" to="-71176476"/>
    <trip id="veh181" type="veh_passenger" depart="43.78" departLane="best" from="17505253#2" to="154927950#1"/>
    <trip id="veh182" type="veh_passenger" depart="44.02" departLane="best" departSpeed="max" from="-6235188" to="22360829#13"/>
    <trip id="veh183" type="veh_passenger" depart="44.27" departLane="best" departSpeed="max" from="-299844804#2" to="311628795#0"/>
    <trip id="veh184" type="veh_passenger" depart="44.51" departLane="best" from="1010515587#0" to="8130894"/>
    <trip id="veh185" type="veh_passenger" depart="44.75" departLane="best" from="-1126471484" to="-3328699#4"/>
    <trip id="veh186" type="veh_passenger" depart="44.99" departLane="best" departSpeed="max" from="30893641#0" to="27818682#0"/>
    <trip id="veh187" type="veh_passenger" depart="45.23" departLane="best" departSpeed="max" from="-53063942#4" to="13824506#0"/>
    <trip id="veh188" type="veh_passenger" depart="45.47" departLane="best" departSpeed="max" from="23121275#0" to="-809484771#1"/>
    <trip id="veh189" type="veh_passenger" depart="45.72" departLane="best" departSpeed="max" from="-38211411" to="53063941#0"/>
    <trip id="veh190" type="veh_passenger" depart="45.96" departLane="best" from="28313553#0" to="61557498#4"/>
    <trip id="veh191" type="veh_passenger" depart="46.20" departLane="best" departSpeed="max" from="-3752554#3" to="107998255#0"/>
    <trip id="veh192" type="veh_passenger" depart="46.44" departLane="best" from="75407897#0" to="3991635#0"/>
    <trip id="veh193" type="veh_passenger" depart="46.68" departLane="best" departSpeed="max" from="-18491551#5" to="112566019#7"/>
    <trip id="veh194" type="veh_passenger" depart="46.93" departLane="best" from="330300725#0" to="283590969#0"/>
    <trip id="veh195" type="veh_passenger" depart="47.17" departLane="best" departSpeed="max" from="71176476" to="23707218#2"/>
    <trip id="veh196" type="veh_passenger" depart="47.41" departLane="best" from="-3731747#0" to="192559636"/>
    <trip id="veh197" type="veh_passenger" depart="47.65" departLane="best" departSpeed="max" from="-100599266#2" to="-535555816#1"/>
    <trip id="veh198" type="veh_passenger" depart="47.89" departLane="best" departSpeed="max" from="-81457873#12" to="22578801"/>
    <trip id="veh199" type="veh_passenger" depart="48.14" departLane="best" from="22912670#0" to="126545572#1"/>
    <trip id="veh200" type="veh_passenger" depart="48.38" departLane="best" from="-87240819#0" to="-316395269#4"/>
    <trip id="veh201" type="veh_passenger" depart="48.62" departLane="best" from="-9932326#1" to="77333810#3"/>
    <trip id="veh202" type="veh_passenger" depart="48.86" departLane="best" from="-192659013#6" to="-25933101#2"/>
    <trip id="veh203" type="veh_passenger" depart="49.10" departLane="best" from="-141114449" to="-16274573#14"/>
    <trip id="veh204" type="veh_passenger" depart="49.35" departLane="best" from="-187730244" to="-813983386"/>
    <trip id="veh205" type="veh_passenger" depart="49.59" departLane="best" from="-125835549#2" to="347934789"/>
    <trip id="veh206" type="veh_passenger" depart="49.83" departLane="best" from="23707016#0" to="-3390199#8"/>
    <trip id="veh207" type="veh_passenger" depart="50.07" departLane="best" from="24317238#0" to="-112966074"/>
    <trip id="veh208" type="veh_passenger" depart="50.31" departLane="best" from="-28370033#2" to="134969629#1"/>
    <trip id="veh209" type="veh_passenger" depart="50.55" departLane="best" from="461159362#0" to="-139706069"/>
    <trip id="veh210" type="veh_passenger" depart="50.80" departLane="best" departSpeed="max" from="-807751754" to="24476708#0"/>
    <trip id="veh211" type="veh_passenger" depart="51.04" departLane="best" from="-23926666#2" to="301552212"/>
    <trip id="veh212" type="veh_passenger" depart="51.28" departLane="best" from="10657957#9" to="-3752560"/>
    <trip id="veh213" type="veh_passenger" depart="51.52" departLane="best" departSpeed="max" from="22993809#0" to="-192658996#4"/>
    <trip id="veh214" type="veh_passenger" depart="51.76" departLane="best" from="320989026" to="3731772"/>
    <trip id="veh215" type="veh_passenger" depart="52.01" departLane="best" from="-16208382#3" to="1152516869"/>
    <trip id="veh216" type="veh_passenger" depart="52.25" departLane="best" departSpeed="max" from="-23018429#2" to="87791733#1"/>
    <trip id="veh217" type="veh_passenger" depart="52.49" departLane="best" from="1177334476" to="-125835581#1"/>
    <trip id="veh218" type="veh_passenger" depart="52.73" departLane="best" from="-290375126#4" to="53063942#3"/>
    <trip id="veh219" type="veh_passenger" depart="52.97" departLane="best" from="9262295#6" to="4003927#5"/>
    <trip id="veh220" type="veh_passenger" depart="53.22" departLane="best" departSpeed="max" from="23237286#0" to="9810422#0"/>
    <trip id="veh221" type="veh_passenger" depart="53.46" departLane="best" departSpeed="max" from="165498333#0" to="863731643#5"/>
    <trip id="veh222" type="veh_passenger" depart="53.70" departLane="best" from="-20681390#1" to="234911911"/>
    <trip id="veh223" type="veh_passenger" depart="53.94" departLane="best" from="-28313549#2" to="15081941"/>
    <trip id="veh224" type="veh_passenger" depart="54.18" departLane="best" from="-42933213#0" to="192559635#0"/>
    <trip id="veh225" type="veh_passenger" depart="54.42" departLane="best" from="69087166" to="344507814#1-AddedOnRampEdge"/>
    <trip id="veh226" type="veh_passenger" depart="54.67" departLane="best" from="-99416784#5" to="414793745#0"/>
    <trip id="veh227" type="veh_passenger" depart="54.91" departLane="best" from="-284251318#16" to="254992596#1"/>
    <trip id="veh228" type="veh_passenger" depart="55.15" departLane="best" from="3372477" to="16925932#2"/>
    <trip id="veh229" type="veh_passenger" depart="55.39" departLane="best" from="19430575#2" to="456815189#0"/>
    <trip id="veh230" type="veh_passenger" depart="55.63" departLane="best" from="736357296" to="531797200"/>
    <trip id="veh231" type="veh_passenger" depart="55.88" departLane="best" departSpeed="max" from="-325313775" to="-76845001#5"/>
    <trip id="veh232" type="veh_passenger" depart="56.12" departLane="best" from="125835572#0" to="-22911713"/>
    <trip id="veh233" type="veh_passenger" depart="56.36" departLane="best" departSpeed="max" from="-27625569#1" to="295335877"/>
    <trip id="veh234" type="veh_passenger" depart="56.60" departLane="best" from="27329058#3" to="-133526235#1"/>
    <trip id="veh235" type="veh_passenger" depart="56.84" departLane="best" from="-782817487" to="-18941703"/>
    <trip id="veh236" type="veh_passenger" depart="57.09" departLane="best" departSpeed="max" from="-8127896" to="-30892902#0"/>
    <trip id="veh237" type="veh_passenger" depart="57.33" departLane="best" departSpeed="max" from="-8128929#11" to="-585855212"/>