<?xml version="1.0" encoding="UTF-8"?>

<!-- generated on 2024-01-21 17:37:26.534611 by osmWebWizard.py UNKNOWN
<configuration>
    <net-file value="/opt/homebrew/Cellar/sumo/1.19.0/share/sumo/tools/2024-01-21-17-36-57/osm.net.xml.gz"/>
    <output-trip-file value="/opt/homebrew/Cellar/sumo/1.19.0/share/sumo/tools/2024-01-21-17-36-57/osm.passenger.trips.xml"/>
    <route-file value="/opt/homebrew/Cellar/sumo/1.19.0/share/sumo/tools/2024-01-21-17-36-57/osm.passenger.rou.xml"/>
    <prefix value="veh"/>
    <trip-attributes value="departLane=&quot;best&quot;"/>
    <fringe-start-attributes value="departSpeed=&quot;max&quot;"/>
    <vehicle-class value="passenger"/>
    <lanes value="True"/>
    <fringe-factor value="5"/>
    <allow-fringe.min-length value="1000.0"/>
    <via-edge-types value="highway.motorway,highway.motorway_link,highway.trunk_link,highway.primary_link,highway.secondary_link,highway.tertiary_link"/>
    <min-distance value="300.0"/>
    <min-distance.fringe value="10.0"/>
    <remove-loops value="True"/>
    <validate value="True"/>
    <insertion-density value="12.0"/>
</configuration>
-->

<!-- generated on 2024-01-21 17:37:21 by Eclipse SUMO duarouter Version 1.19.0
<configuration xmlns:xsi="http://www.w3.org/2001/XMLSchema-instance" xsi:noNamespaceSchemaLocation="http://sumo.dlr.de/xsd/duarouterConfiguration.xsd">

    <input>
        <net-file value="/opt/homebrew/Cellar/sumo/1.19.0/share/sumo/tools/2024-01-21-17-36-57/osm.net.xml.gz"/>
        <route-files value="/opt/homebrew/Cellar/sumo/1.19.0/share/sumo/tools/2024-01-21-17-36-57/osm.passenger.trips.xml"/>
    </input>

    <output>
        <output-file value="/opt/homebrew/Cellar/sumo/1.19.0/share/sumo/tools/2024-01-21-17-36-57/osm.passenger.trips.xml.tmp"/>
        <alternatives-output value="NUL"/>
        <write-trips value="true"/>
    </output>

    <processing>
        <remove-loops value="true"/>
    </processing>

    <time>
        <begin value="0.0"/>
        <end value="3600.0"/>
    </time>

    <report>
        <no-warnings value="true"/>
        <ignore-errors value="true"/>
        <no-step-log value="true"/>
    </report>

</configuration>
-->

<routes xmlns:xsi="http://www.w3.org/2001/XMLSchema-instance" xsi:noNamespaceSchemaLocation="http://sumo.dlr.de/xsd/routes_file.xsd">
    <vType id="veh_passenger" vClass="passenger"/>
    <trip id="veh0" type="veh_passenger" depart="0.00" departLane="best" from="-339348710" to="-11256172#1"/>
    <trip id="veh1" type="veh_passenger" depart="0.29" departLane="best" from="-3450246" to="-339348708"/>
    <trip id="veh2" type="veh_passenger" depart="0.59" departLane="best" from="311007044" to="292472310#0"/>
    <trip id="veh3" type="veh_passenger" depart="0.88" departLane="best" from="-940919067" to="149116010#0"/>
    <trip id="veh4" type="veh_passenger" depart="1.17" departLane="best" from="-8412197#10" to="-114788001#2"/>
    <trip id="veh5" type="veh_passenger" depart="1.46" departLane="best" from="-27625566#0" to="15082288"/>
    <trip id="veh6" type="veh_passenger" depart="1.76" departLane="best" from="-11029282#5" to="-301569184#2"/>
    <trip id="veh7" type="veh_passenger" depart="2.05" departLane="best" from="-23017147#0" to="192659005#0"/>
    <trip id="veh8" type="veh_passenger" depart="2.34" departLane="best" from="27625960#4" to="22938871#0"/>
    <trip id="veh9" type="veh_passenger" depart="2.63" departLane="best" from="3990534#0" to="-104319614#0"/>
    <trip id="veh10" type="veh_passenger" depart="2.93" departLane="best" from="3876848#0" to="32476969"/>
    <trip id="veh11" type="veh_passenger" depart="3.22" departLane="best" from="-461159369#2" to="-23707218#5"/>
    <trip id="veh12" type="veh_passenger" depart="3.51" departLane="best" from="89541110#0" to="-104319614#3"/>
    <trip id="veh13" type="veh_passenger" depart="3.80" departLane="best" from="147850137#2" to="16925932#1"/>
    <trip id="veh14" type="veh_passenger" depart="4.10" departLane="best" from="4858224" to="23157450"/>
    <trip id="veh15" type="veh_passenger" depart="4.39" departLane="best" from="3877384" to="3424510#4"/>
    <trip id="veh16" type="veh_passenger" depart="4.68" departLane="best" departSpeed="max" from="126304916" to="9387733"/>
    <trip id="veh17" type="veh_passenger" depart="4.97" departLane="best" departSpeed="max" from="-687571021" to="19429659#3"/>
    <trip id="veh19" type="veh_passenger" depart="5.56" departLane="best" departSpeed="max" from="532706672" to="22582324"/>
    <trip id="veh21" type="veh_passenger" depart="6.14" departLane="best" from="-282276414" to="571659535#4"/>
    <trip id="veh22" type="veh_passenger" depart="6.44" departLane="best" from="-13799526#0" to="-356066431#5"/>
    <trip id="veh23" type="veh_passenger" depart="6.73" departLane="best" departSpeed="max" from="-15213570" to="-512404000#2"/>
    <trip id="veh24" type="veh_passenger" depart="7.02" departLane="best" from="22476416" to="-98807522"/>
    <trip id="veh25" type="veh_passenger" depart="7.31" departLane="best" departSpeed="max" from="-609991341#1" to="-318218554#2"/>
    <trip id="veh26" type="veh_passenger" depart="7.61" departLane="best" from="-3358675" to="8402583"/>
    <trip id="veh27" type="veh_passenger" depart="7.90" departLane="best" from="-22992964" to="23691367#0"/>
    <trip id="veh28" type="veh_passenger" depart="8.19" departLane="best" from="22992962#0" to="3424505#12"/>
    <trip id="veh29" type="veh_passenger" depart="8.49" departLane="best" departSpeed="max" from="-22727632#1" to="1024008437#0"/>
    <trip id="veh30" type="veh_passenger" depart="8.78" departLane="best" from="-120086151#1" to="26124234#1"/>
    <trip id="veh31" type="veh_passenger" depart="9.07" departLane="best" from="13799521#0" to="-301636907"/>
    <trip id="veh32" type="veh_passenger" depart="9.36" departLane="best" departSpeed="max" from="458546718" to="3869802#1"/>
    <trip id="veh33" type="veh_passenger" depart="9.66" departLane="best" departSpeed="max" from="-28313549#5" to="1155226687"/>
    <trip id="veh34" type="veh_passenger" depart="9.95" departLane="best" from="-4000694#2" to="-450119555"/>
    <trip id="veh35" type="veh_passenger" depart="10.24" departLane="best" from="26409820#1" to="85798399#5"/>
    <trip id="veh36" type="veh_passenger" depart="10.53" departLane="best" from="608715638" to="75408671"/>
    <trip id="veh38" type="veh_passenger" depart="11.12" departLane="best" from="79501549" to="126304964#2"/>
    <trip id="veh39" type="veh_passenger" depart="11.41" departLane="best" departSpeed="max" from="-3351202" to="-3869830#2"/>
    <trip id="veh40" type="veh_passenger" depart="11.70" departLane="best" from="139705263#1" to="-43547536#0"/>
    <trip id="veh41" type="veh_passenger" depart="12.00" departLane="best" departSpeed="max" from="15725172#0" to="77762137#0"/>
    <trip id="veh42" type="veh_passenger" depart="12.29" departLane="best" departSpeed="max" from="-8055845#3" to="-3358662#0"/>
    <trip id="veh43" type="veh_passenger" depart="12.58" departLane="best" from="-9932334#0" to="15725982#0"/>
    <trip id="veh44" type="veh_passenger" depart="12.87" departLane="best" departSpeed="max" from="-14394805" to="123929644#0"/>
    <trip id="veh45" type="veh_passenger" depart="13.17" departLane="best" departSpeed="max" from="-16925932#3" to="24905260#0"/>
    <trip id="veh46" type="veh_passenger" depart="13.46" departLane="best" from="3701257#2" to="1152516873#0"/>
    <trip id="veh47" type="veh_passenger" depart="13.75" departLane="best" from="-126304955#4" to="1036486948#0"/>
    <trip id="veh48" type="veh_passenger" depart="14.04" departLane="best" departSpeed="max" from="9932323#0" to="17505543"/>
    <trip id="veh49" type="veh_passenger" depart="14.34" departLane="best" departSpeed="max" from="9387883#0" to="351276443#1"/>
    <trip id="veh50" type="veh_passenger" depart="14.63" departLane="best" departSpeed="max" from="-105145353#1" to="339911868"/>
    <trip id="veh51" type="veh_passenger" depart="14.92" departLane="best" from="-344505057" to="18491553"/>
    <trip id="veh52" type="veh_passenger" depart="15.22" departLane="best" from="-3358669#6" to="261749239"/>
    <trip id="veh53" type="veh_passenger" depart="15.51" departLane="best" departSpeed="max" from="-16927056#2" to="-120125393#3"/>
    <trip id="veh54" type="veh_passenger" depart="15.80" departLane="best" from="9810393#1" to="-87304285#1"/>
    <trip id="veh55" type="veh_passenger" depart="16.09" departLane="best" from="608715612" to="-43547540"/>
    <trip id="veh56" type="veh_passenger" depart="16.39" departLane="best" from="112566019#0" to="-27332787"/>
    <trip id="veh57" type="veh_passenger" depart="16.68" departLane="best" from="79299308" to="66689140"/>
    <trip id="veh58" type="veh_passenger" depart="16.97" departLane="best" departSpeed="max" from="-37713149#2" to="25933423#0"/>
    <trip id="veh59" type="veh_passenger" depart="17.26" departLane="best" departSpeed="max" from="192359865#0" to="23443336#1"/>
    <trip id="veh60" type="veh_passenger" depart="17.56" departLane="best" from="-193041185" to="188283720#1"/>
    <trip id="veh61" type="veh_passenger" depart="17.85" departLane="best" from="348273661" to="17513714#0"/>
    <trip id="veh62" type="veh_passenger" depart="18.14" departLane="best" departSpeed="max" from="-100599266#2" to="86203360#0"/>
    <trip id="veh63" type="veh_passenger" depart="18.43" departLane="best" departSpeed="max" from="-106927267" to="8133608#0"/>
    <trip id="veh64" type="veh_passenger" depart="18.73" departLane="best" from="609188307#1" to="4858454"/>
    <trip id="veh65" type="veh_passenger" depart="19.02" departLane="best" departSpeed="max" from="-3877322#3" to="126304949#0"/>
    <trip id="veh66" type="veh_passenger" depart="19.31" departLane="best" from="609188300#0" to="863272991"/>
    <trip id="veh67" type="veh_passenger" depart="19.60" departLane="best" from="-141114449" to="141192015#0"/>
    <trip id="veh68" type="veh_passenger" depart="19.90" departLane="best" from="-129960577" to="3731769"/>
    <trip id="veh69" type="veh_passenger" depart="20.19" departLane="best" from="339911943" to="-22357838#0"/>
    <trip id="veh70" type="veh_passenger" depart="20.48" departLane="best" departSpeed="max" from="104071647" to="19429650#0"/>
    <trip id="veh72" type="veh_passenger" depart="21.07" departLane="best" from="-844373391#1" to="-325166038#4"/>
    <trip id="veh73" type="veh_passenger" depart="21.36" departLane="best" from="126304944#0" to="3424510#4"/>
    <trip id="veh74" type="veh_passenger" depart="21.65" departLane="best" from="-253165430#1" to="741174587"/>
    <trip id="veh75" type="veh_passenger" depart="21.94" departLane="best" departSpeed="max" from="9932318#0" to="27625544#0"/>
    <trip id="veh76" type="veh_passenger" depart="22.24" departLane="best" departSpeed="max" from="-90613907#2" to="16925932#1"/>
    <trip id="veh77" type="veh_passenger" depart="22.53" departLane="best" from="-179193407" to="-339533472#2"/>
    <trip id="veh78" type="veh_passenger" depart="22.82" departLane="best" from="-450119559" to="22912669#1"/>
    <trip id="veh79" type="veh_passenger" depart="23.12" departLane="best" departSpeed="max" from="-28352299#1" to="961129697"/>
    <trip id="veh80" type="veh_passenger" depart="23.41" departLane="best" departSpeed="max" from="-131480746" to="254881981#0"/>
    <trip id="veh81" type="veh_passenger" depart="23.70" departLane="best" departSpeed="max" from="-28313549#5" to="80194313#0"/>
    <trip id="veh82" type="veh_passenger" depart="23.99" departLane="best" departSpeed="max" from="53085699#0" to="135506373"/>
    <trip id="veh83" type="veh_passenger" depart="24.29" departLane="best" departSpeed="max" from="-294038584#1" to="286591662"/>
    <trip id="veh84" type="veh_passenger" depart="24.58" departLane="best" from="-269649093" to="-22712874#1"/>
    <trip id="veh85" type="veh_passenger" depart="24.87" departLane="best" from="-83524606" to="22357838#2"/>
    <trip id="veh86" type="veh_passenger" depart="25.16" departLane="best" from="10269271#0" to="3991617#0"/>
    <trip id="veh87" type="veh_passenger" depart="25.46" departLane="best" from="3878248#0" to="-28352392#2"/>
    <trip id="veh88" type="veh_passenger" depart="25.75" departLane="best" from="-147856946#2" to="11977109"/>
    <trip id="veh89" type="veh_passenger" depart="26.04" departLane="best" departSpeed="max" from="-844373393" to="131288116"/>
    <trip id="veh90" type="veh_passenger" depart="26.33" departLane="best" from="305434579#0" to="292347109"/>
    <trip id="veh91" type="veh_passenger" depart="26.63" departLane="best" from="968811663#0" to="17023727"/>
    <trip id="veh92" type="veh_passenger" depart="26.92" departLane="best" from="-8127965#2" to="87240819#0"/>
    <trip id="veh93" type="veh_passenger" depart="27.21" departLane="best" departSpeed="max" from="532706672" to="-395065682"/>
    <trip id="veh94" type="veh_passenger" depart="27.50" departLane="best" from="-23889534#4" to="-125835556#6"/>
    <trip id="veh95" type="veh_passenger" depart="27.80" departLane="best" from="-8412197#10" to="521257400#0"/>
    <trip id="veh96" type="veh_passenger" depart="28.09" departLane="best" from="-311042988" to="-8130893#0"/>
    <trip id="veh97" type="veh_passenger" depart="28.38" departLane="best" from="-9262295#2" to="608754692#5"/>
    <trip id="veh98" type="veh_passenger" depart="28.67" departLane="best" from="-13242369#2" to="688336518"/>
    <trip id="veh99" type="veh_passenger" depart="28.97" departLane="best" from="99500130#0" to="506316648"/>
    <trip id="veh100" type="veh_passenger" depart="29.26" departLane="best" from="-93647810#3" to="8131040"/>
    <trip id="veh101" type="veh_passenger" depart="29.55" departLane="best" from="-4858452#2" to="-25806803#0"/>
    <trip id="veh102" type="veh_passenger" depart="29.84" departLane="best" departSpeed="max" from="1066670516" to="-326736764"/>
    <trip id="veh103" type="veh_passenger" depart="30.14" departLane="best" from="809485597" to="-126304952#1"/>
    <trip id="veh104" type="veh_passenger" depart="30.43" departLane="best" departSpeed="max" from="-688341961#1" to="97757059#0"/>
    <trip id="veh105" type="veh_passenger" depart="30.72" departLane="best" from="-3351203#0" to="3991610#0"/>
    <trip id="veh106" type="veh_passenger" depart="31.02" departLane="best" departSpeed="max" from="-9810433#2" to="-1159695913#1"/>
    <trip id="veh107" type="veh_passenger" depart="31.31" departLane="best" from="89541111#0" to="9932327#0"/>
    <trip id="veh108" type="veh_passenger" depart="31.60" departLane="best" from="136819239#0" to="339533459"/>
    <trip id="veh109" type="veh_passenger" depart="31.89" departLane="best" from="-22358449#3" to="-61557498#1"/>
    <trip id="veh110" type="veh_passenger" depart="32.19" departLane="best" from="192659019#0" to="22712946"/>
    <trip id="veh111" type="veh_passenger" depart="32.48" departLane="best" from="-126304965#4" to="35731415#7"/>
    <trip id="veh112" type="veh_passenger" depart="32.77" departLane="best" from="-125835551#1" to="22902241#2"/>
    <trip id="veh113" type="veh_passenger" depart="33.06" departLane="best" departSpeed="max" from="11298651" to="571659535#7"/>
    <trip id="veh114" type="veh_passenger" depart="33.36" departLane="best" departSpeed="max" from="-22578798#3" to="89541110#0"/>
    <trip id="veh115" type="veh_passenger" depart="33.65" departLane="best" from="-13799528#1" to="-27657520#0"/>
    <trip id="veh116" type="veh_passenger" depart="33.94" departLane="best" departSpeed="max" from="173087313#0" to="292472297"/>
    <trip id="veh117" type="veh_passenger" depart="34.23" departLane="best" from="147856936#4" to="19430526#0"/>
    <trip id="veh118" type="veh_passenger" depart="34.53" departLane="best" departSpeed="max" from="687562556#0" to="-3869812#5"/>
    <trip id="veh119" type="veh_passenger" depart="34.82" departLane="best" from="17268861#1" to="239932051#0"/>
    <trip id="veh120" type="veh_passenger" depart="35.11" departLane="best" from="825894755#0" to="22888466"/>
    <trip id="veh121" type="veh_passenger" depart="35.40" departLane="best" from="1222601059" to="832174482"/>
    <trip id="veh122" type="veh_passenger" depart="35.70" departLane="best" from="-25806802" to="8127964"/>
    <trip id="veh123" type="veh_passenger" depart="35.99" departLane="best" departSpeed="max" from="-294038585#3" to="10672044"/>
    <trip id="veh124" type="veh_passenger" depart="36.28" departLane="best" from="-239795249" to="-650036755"/>
    <trip id="veh125" type="veh_passenger" depart="36.57" departLane="best" departSpeed="max" from="-4001978#2" to="3677823#5"/>
    <trip id="veh126" type="veh_passenger" depart="36.87" departLane="best" departSpeed="max" from="-13242369#2" to="-126304963#1"/>
    <trip id="veh127" type="veh_passenger" depart="37.16" departLane="best" from="99346749" to="9932334#1"/>
    <trip id="veh128" type="veh_passenger" depart="37.45" departLane="best" departSpeed="max" from="-132580431" to="-326736762"/>
    <trip id="veh129" type="veh_passenger" depart="37.75" departLane="best" from="-3351203#0" to="82459657#0"/>
    <trip id="veh130" type="veh_passenger" depart="38.04" departLane="best" from="-622063616" to="688347309"/>
    <trip id="veh131" type="veh_passenger" depart="38.33" departLane="best" from="-60966478#1" to="-23926667#0"/>
    <trip id="veh132" type="veh_passenger" depart="38.62" departLane="best" from="43547541" to="329511877#1"/>
    <trip id="veh133" type="veh_passenger" depart="38.92" departLane="best" from="192559627#0" to="9810433#1"/>
    <trip id="veh134" type="veh_passenger" depart="39.21" departLane="best" from="23098343#0" to="104622427#0"/>
    <trip id="veh135" type="veh_passenger" depart="39.50" departLane="best" from="4009884#0" to="-649098638"/>
    <trip id="veh136" type="veh_passenger" depart="39.79" departLane="best" departSpeed="max" from="23443399#0" to="844373392"/>
    <trip id="veh137" type="veh_passenger" depart="40.09" departLane="best" from="192659001#7" to="192659005#2"/>
    <trip id="veh138" type="veh_passenger" depart="40.38" departLane="best" departSpeed="max" from="-16765838#8" to="19429663#1"/>
    <trip id="veh139" type="veh_passenger" depart="40.67" departLane="best" from="3424507#0" to="-23235991#3"/>
    <trip id="veh140" type="veh_passenger" depart="40.96" departLane="best" from="886815612" to="-31058499#1"/>
    <trip id="veh141" type="veh_passenger" depart="41.26" departLane="best" from="22358333#2" to="-43548668#2"/>
    <trip id="veh142" type="veh_passenger" depart="41.55" departLane="best" from="-10682396#2" to="80142973"/>
    <trip id="veh143" type="veh_passenger" depart="41.84" departLane="best" from="48392358#0" to="-15725172#3"/>
    <trip id="veh144" type="veh_passenger" depart="42.13" departLane="best" departSpeed="max" from="-844373393" to="-5108959#14"/>
    <trip id="veh145" type="veh_passenger" depart="42.43" departLane="best" from="-10156323#0" to="38209957#0"/>
    <trip id="veh146" type="veh_passenger" depart="42.72" departLane="best" from="225605633-AddedOnRampEdge" to="-43547527"/>
    <trip id="veh147" type="veh_passenger" depart="43.01" departLane="best" departSpeed="max" from="324280976" to="19429659#2"/>
    <trip id="veh148" type="veh_passenger" depart="43.30" departLane="best" from="-87240817#0" to="-105571610#5"/>
    <trip id="veh149" type="veh_passenger" depart="43.60" departLane="best" departSpeed="max" from="-133545945" to="699696208"/>
    <trip id="veh150" type="veh_passenger" depart="43.89" departLane="best" from="741174586" to="192659009"/>
    <trip id="veh151" type="veh_passenger" depart="44.18" departLane="best" from="-384913439" to="228638295#1"/>
    <trip id="veh152" type="veh_passenger" depart="44.47" departLane="best" departSpeed="max" from="-19612549#1" to="-215431826#1"/>
    <trip id="veh153" type="veh_passenger" depart="44.77" departLane="best" from="3877428" to="77864401"/>
    <trip id="veh154" type="veh_passenger" depart="45.06" departLane="best" from="3731773#3" to="351276443#1"/>
    <trip id="veh155" type="veh_passenger" depart="45.35" departLane="best" from="70925210#0" to="320989026"/>
    <trip id="veh156" type="veh_passenger" depart="45.65" departLane="best" from="311007043" to="-17505229#0"/>
    <trip id="veh157" type="veh_passenger" depart="45.94" departLane="best" from="350992069#6" to="70006872#0"/>
    <trip id="veh158" type="veh_passenger" depart="46.23" departLane="best" departSpeed="max" from="-8128928#38" to="24317237"/>
    <trip id="veh159" type="veh_passenger" depart="46.52" departLane="best" from="-22358449#1" to="813979470"/>
    <trip id="veh160" type="veh_passenger" depart="46.82" departLane="best" departSpeed="max" from="553224807" to="9522813"/>
    <trip id="veh161" type="veh_passenger" depart="47.11" departLane="best" from="3991663#0" to="69217079#0"/>
    <trip id="veh162" type="veh_passenger" depart="47.40" departLane="best" departSpeed="max" from="-1102365697" to="3450247#1"/>
    <trip id="veh163" type="veh_passenger" depart="47.69" departLane="best" from="43547521#1" to="81457873#0"/>
    <trip id="veh164" type="veh_passenger" depart="47.99" departLane="best" from="-384910286#1" to="609991336"/>
    <trip id="veh165" type="veh_passenger" depart="48.28" departLane="best" from="3991663#0" to="-43998820#4"/>
    <trip id="veh166" type="veh_passenger" depart="48.57" departLane="best" from="36532842" to="-18494060#0"/>
    <trip id="veh167" type="veh_passenger" depart="48.86" departLane="best" from="584356749" to="608715545"/>
    <trip id="veh168" type="veh_passenger" depart="49.16" departLane="best" departSpeed="max" from="-27626085" to="438252646#0"/>
    <trip id="veh169" type="veh_passenger" depart="49.45" departLane="best" from="-9932324#0" to="-69162795#0"/>
    <trip id="veh170" type="veh_passenger" depart="49.74" departLane="best" from="3731761#9" to="3450243#2"/>
    <trip id="veh171" type="veh_passenger" depart="50.03" departLane="best" departSpeed="max" from="-1090593565" to="-28588899#1"/>
    <trip id="veh172" type="veh_passenger" depart="50.33" departLane="best" from="430047989#4" to="609991341#0"/>
    <trip id="veh173" type="veh_passenger" depart="50.62" departLane="best" from="9262295#6" to="521257409#5"/>
    <trip id="veh174" type="veh_passenger" depart="50.91" departLane="best" departSpeed="max" from="228638295#0" to="10682496"/>
    <trip id="veh175" type="veh_passenger" depart="51.20" departLane="best" from="-963637846" to="-1177332091"/>
    <trip id="veh176" type="veh_passenger" depart="51.50" departLane="best" departSpeed="max" from="85044906" to="192659005#0"/>
    <trip id="veh177" type="veh_passenger" depart="51.79" departLane="best" from="-9387501" to="-27332787"/>
    <trip id="veh178" type="veh_passenger" depart="52.08" departLane="best" from="90673910#0" to="-43998443"/>
    <trip id="veh179" type="veh_passenger" depart="52.37" departLane="best" departSpeed="max" from="-16924174#2" to="120093639#1"/>
    <trip id="veh180" type="veh_passenger" depart="52.67" departLane="best" from="304241968" to="-75122798#2"/>
    <trip id="veh181" type="veh_passenger" depart="52.96" departLane="best" departSpeed="max" from="18494060#0" to="16149659#0"/>
    <trip id="veh182" type="veh_passenger" depart="53.25" departLane="best" from="-71745448" to="22578803#3"/>
    <trip id="veh183" type="veh_passenger" depart="53.55" departLane="best" from="325162799#0" to="3343966#0"/>
    <trip id="veh184" type="veh_passenger" depart="53.84" departLane="best" from="-1010515586#2" to="8130906#0"/>
    <trip id="veh185" type="veh_passenger" depart="54.13" departLane="best" departSpeed="max" from="126304937" to="339533455"/>
    <trip id="veh186" type="veh_passenger" depart="54.42" departLane="best" from="32476969" to="292233686#2"/>
    <trip id="veh187" type="veh_passenger" depart="54.72" departLane="best" departSpeed="max" from="-608161781#1" to="-135401594#1"/>
    <trip id="veh188" type="veh_passenger" depart="55.01" departLane="best" from="23645815#0" to="608916197#0"/>
    <trip id="veh189" type="veh_passenger" depart="55.30" departLane="best" departSpeed="max" from="-3996945" to="55447932#1"/>
    <trip id="veh190" type="veh_passenger" depart="55.59" departLane="best" from="292472302#0" to="-655251291"/>
    <trip id="veh191" type="veh_passenger" depart="55.89" departLane="best" departSpeed="max" from="-38917153#6" to="11029553#3"/>
    <trip id="veh192" type="veh_passenger" depart="56.18" departLane="best" departSpeed="max" from="-8127925#6" to="-608916224"/>
    <trip id="veh194" type="veh_passenger" depart="56.76" departLane="best" departSpeed="max" from="85044906" to="29310907#0"/>
    <trip id="veh195" type="veh_passenger" depart="57.06" departLane="best" from="72856963" to="23911554"/>
    <trip id="veh196" type="veh_passenger" depart="57.35" departLane="best" departSpeed="max" from="-38211411" to="192689373#0"/>
    <trip id="veh197" type="veh_passenger" depart="57.64" departLane="best" departSpeed="max" from="-100599266#2" to="-55448010#0"/>
    <trip id="veh198" type="veh_passenger" depart="57.93" departLane="best" from="-872931754#1" to="-22715871#2"/>
    <trip id="veh199" type="veh_passenger" depart="58.23" departLane="best" from="23104390" to="128943402#2"/>
    <trip id="veh200" type="veh_passenger" depart="58.52" departLane="best" from="-925357724#1" to="-326736764"/>
    <trip id="veh201" type="veh_passenger" depart="58.81" departLane="best" departSpeed="max" from="1030738398#0" to="79002195#0"/>
    <trip id="veh202" type="veh_passenger" depart="59.10" departLane="best" from="3731773#2" to="-25933419#5"/>
    <trip id="veh203" type="veh_passenger" depart="59.40" departLane="best" from="-141114449" to="16766888#1"/>
    <trip id="veh205" type="veh_passenger" depart="59.98" departLane="best" departSpeed="max" from="40402411" to="3677823#0"/>
    <trip id="veh206" type="veh_passenger" depart="60.28" departLane="best" from="24254167#0" to="-339533472#2"/>
    <trip id="veh207" type="veh_passenger" depart="60.57" departLane="best" departSpeed="max" from="-24471499#3" to="-1120983392#0"/>
    <trip id="veh208" type="veh_passenger" depart="60.86" departLane="best" departSpeed="max" from="-302138409#1" to="136819241#0"/>
    <trip id="veh209" type="veh_passenger" depart="61.15" departLane="best" from="-4858604#6" to="-13799528#0"/>
    <trip id="veh210" type="veh_passenger" depart="61.45" departLane="best" departSpeed="max" from="-8130985#1" to="254742534"/>
    <trip id="veh211" type="veh_passenger" depart="61.74" departLane="best" from="-23957151#0" to="318216947#6"/>
    <trip id="veh212" type="veh_passenger" depart="62.03" departLane="best" from="11031160#4" to="-38241796#1"/>
    <trip id="veh214" type="veh_passenger" depart="62.62" departLane="best" from="-333580518#2" to="38154614#0"/>
    <trip id="veh215" type="veh_passenger" depart="62.91" departLane="best" departSpeed="max" from="-16765838#8" to="-116797180"/>
    <trip id="veh216" type="veh_passenger" depart="63.20" departLane="best" from="23061590" to="886815612"/>
    <trip id="veh217" type="veh_passenger" depart="63.49" departLane="best" from="1201653792" to="-125835549#1"/>
    <trip id="veh218" type="veh_passenger" depart="63.79" departLane="best" from="311007039#1" to="55447935"/>
    <trip id="veh219" type="veh_passenger" depart="64.08" departLane="best" from="608818931" to="421590925#1"/>
    <trip id="veh220" type="veh_passenger" depart="64.37" departLane="best" from="23837544-AddedOnRampEdge" to="9825487#0"/>
    <trip id="veh221" type="veh_passenger" depart="64.66" departLane="best" from="-17336304#3" to="87240813"/>
    <trip id="veh223" type="veh_passenger" depart="65.25" departLane="best" from="292472299" to="15081954#0"/>
    <trip id="veh224" type="veh_passenger" depart="65.54" departLane="best" departSpeed="max" from="43547521#0" to="192689373#0"/>
    <trip id="veh225" type="veh_passenger" depart="65.83" departLane="best" departSpeed="max" from="70006869#0" to="351276441#2"/>
    <trip id="veh227" type="veh_passenger" depart="66.42" departLane="best" from="-31058506#5" to="25933419#6"/>
    <trip id="veh228" type="veh_passenger" depart="66.71" departLane="best" from="339911943" to="17023822#5"/>
    <trip id="veh229" type="veh_passenger" depart="67.00" departLane="best" from="199381118#0" to="-4859535#2"/>
    <trip id="veh230" type="veh_passenger" depart="67.30" departLane="best" departSpeed="max" from="-136595587" to="-55447815#1"/>
    <trip id="veh231" type="veh_passenger" depart="67.59" departLane="best" from="-340265966" to="-23121879"/>
    <trip id="veh232" type="veh_passenger" depart="67.88" departLane="best" departSpeed="max" from="126304952#0" to="22908674#0"/>
    <trip id="veh233" type="veh_passenger" depart="68.18" departLane="best" departSpeed="max" from="-28352735#1" to="314108256#7"/>
    <trip id="veh234" type="veh_passenger" depart="68.47" departLane="best" from="-27682268" to="122099684"/>
    <trip id="veh235" type="veh_passenger" depart="68.76" departLane="best" from="-8129163" to="192559622#0"/>
    <trip id="veh236" type="veh_passenger" depart="69.05" departLane="best" from="-813979468" to="-311007034"/>
    <trip id="veh237" type="veh_passenger" depart="69.35" departLane="best" departSpeed="max" from="-83524492#2" to="79940705#10"/>
    <trip id="veh238" type="veh_passenger" depart="69.64" departLane="best" from="154927153#0" to="314635787#2"/>
    <trip id="veh239" type="veh_passenger" depart="69.93" departLane="best" from="517279286-AddedOffRampEdge" to="3752545"/>
    <trip id="veh240" type="veh_passenger" depart="70.22" departLane="best" departSpeed="max" from="-69162795#1" to="10362550#0"/>
    <trip id="veh241" type="veh_passenger" depart="70.52" departLane="best" departSpeed="max" from="-53063942#4" to="3701201#7"/>
    <trip id="veh242" type="veh_passenger" depart="70.81" departLane="best" from="506316648" to="87304282#0"/>