<?xml version="1.0" encoding="UTF-8"?>

<!-- generated on 2024-01-20 17:14:15.029670 by osmWebWizard.py UNKNOWN
<configuration>
    <net-file value="/opt/homebrew/Cellar/sumo/1.19.0/share/sumo/tools/2024-01-20-17-13-07/osm.net.xml.gz"/>
    <output-trip-file value="/opt/homebrew/Cellar/sumo/1.19.0/share/sumo/tools/2024-01-20-17-13-07/osm.passenger.trips.xml"/>
    <route-file value="/opt/homebrew/Cellar/sumo/1.19.0/share/sumo/tools/2024-01-20-17-13-07/osm.passenger.rou.xml"/>
    <prefix value="veh"/>
    <trip-attributes value="departLane=&quot;best&quot;"/>
    <fringe-start-attributes value="departSpeed=&quot;max&quot;"/>
    <vehicle-class value="passenger"/>
    <lanes value="True"/>
    <fringe-factor value="5"/>
    <allow-fringe.min-length value="1000.0"/>
    <via-edge-types value="highway.motorway,highway.motorway_link,highway.trunk_link,highway.primary_link,highway.secondary_link,highway.tertiary_link"/>
    <min-distance value="300.0"/>
    <min-distance.fringe value="10.0"/>
    <remove-loops value="True"/>
    <validate value="True"/>
    <insertion-density value="12.0"/>
</configuration>
-->

<!-- generated on 2024-01-20 17:13:59 by Eclipse SUMO duarouter Version 1.19.0
<configuration xmlns:xsi="http://www.w3.org/2001/XMLSchema-instance" xsi:noNamespaceSchemaLocation="http://sumo.dlr.de/xsd/duarouterConfiguration.xsd">

    <input>
        <net-file value="/opt/homebrew/Cellar/sumo/1.19.0/share/sumo/tools/2024-01-20-17-13-07/osm.net.xml.gz"/>
        <route-files value="/opt/homebrew/Cellar/sumo/1.19.0/share/sumo/tools/2024-01-20-17-13-07/osm.passenger.trips.xml"/>
    </input>

    <output>
        <output-file value="/opt/homebrew/Cellar/sumo/1.19.0/share/sumo/tools/2024-01-20-17-13-07/osm.passenger.trips.xml.tmp"/>
        <alternatives-output value="NUL"/>
        <write-trips value="true"/>
    </output>

    <processing>
        <remove-loops value="true"/>
    </processing>

    <time>
        <begin value="0.0"/>
        <end value="3600.0"/>
    </time>

    <report>
        <no-warnings value="true"/>
        <ignore-errors value="true"/>
        <no-step-log value="true"/>
    </report>

</configuration>
-->

<routes xmlns:xsi="http://www.w3.org/2001/XMLSchema-instance" xsi:noNamespaceSchemaLocation="http://sumo.dlr.de/xsd/routes_file.xsd">
    <vType id="veh_passenger" vClass="passenger"/>
    <trip id="veh0" type="veh_passenger" depart="0.00" departLane="best" from="227990162#1" to="-11064172#2"/>
    <trip id="veh1" type="veh_passenger" depart="0.27" departLane="best" departSpeed="max" from="-3495647" to="310838964#0"/>
    <trip id="veh4" type="veh_passenger" depart="1.09" departLane="best" from="-88965272#2" to="112566019#6"/>
    <trip id="veh5" type="veh_passenger" depart="1.36" departLane="best" from="27657519" to="134969628"/>
    <trip id="veh6" type="veh_passenger" depart="1.63" departLane="best" from="-11031161#0" to="-27625977#2"/>
    <trip id="veh7" type="veh_passenger" depart="1.90" departLane="best" from="-23061591#1" to="-165498335#0"/>
    <trip id="veh8" type="veh_passenger" depart="2.17" departLane="best" departSpeed="max" from="-279800095" to="194333893"/>
    <trip id="veh9" type="veh_passenger" depart="2.44" departLane="best" departSpeed="max" from="39173907#0" to="104319553#0"/>
    <trip id="veh10" type="veh_passenger" depart="2.71" departLane="best" from="3869830#2" to="29283599#2"/>
    <trip id="veh11" type="veh_passenger" depart="2.99" departLane="best" from="-5108959#9" to="22992964"/>
    <trip id="veh12" type="veh_passenger" depart="3.26" departLane="best" from="876185324" to="-70006869#0"/>
    <trip id="veh13" type="veh_passenger" depart="3.53" departLane="best" from="147850137#3" to="-159192280"/>
    <trip id="veh14" type="veh_passenger" depart="3.80" departLane="best" from="4858251#0" to="22360829#4"/>
    <trip id="veh15" type="veh_passenger" depart="4.07" departLane="best" from="3876851#2" to="329511877#1"/>
    <trip id="veh16" type="veh_passenger" depart="4.34" departLane="best" from="-128943402#2" to="-9387193#12"/>
    <trip id="veh17" type="veh_passenger" depart="4.61" departLane="best" from="75113360#0" to="-173087313#0"/>
    <trip id="veh18" type="veh_passenger" depart="4.88" departLane="best" from="-43068931#1" to="23017147#2"/>
    <trip id="veh19" type="veh_passenger" depart="5.16" departLane="best" departSpeed="max" from="553224807" to="192559627#0"/>
    <trip id="veh20" type="veh_passenger" depart="5.43" departLane="best" from="27938304#2" to="121850710"/>
    <trip id="veh21" type="veh_passenger" depart="5.70" departLane="best" departSpeed="max" from="-286817493#1" to="-42929469"/>
    <trip id="veh22" type="veh_passenger" depart="5.97" departLane="best" from="13799526#1" to="-326736763"/>
    <trip id="veh23" type="veh_passenger" depart="6.24" departLane="best" departSpeed="max" from="-15215748#2" to="3877383"/>
    <trip id="veh24" type="veh_passenger" depart="6.51" departLane="best" from="-22641212#1" to="-8130895#0"/>
    <trip id="veh25" type="veh_passenger" depart="6.78" departLane="best" from="-688347311#1" to="-29013123#1"/>
    <trip id="veh26" type="veh_passenger" depart="7.06" departLane="best" from="-339533467#1" to="8177668#3"/>
    <trip id="veh27" type="veh_passenger" depart="7.33" departLane="best" from="23041592" to="22715867"/>
    <trip id="veh28" type="veh_passenger" depart="7.60" departLane="best" from="23057764#2" to="327778853"/>
    <trip id="veh29" type="veh_passenger" depart="7.87" departLane="best" departSpeed="max" from="-22902241#2" to="874846060#1"/>
    <trip id="veh30" type="veh_passenger" depart="8.14" departLane="best" from="982974944#10" to="23926469#1"/>
    <trip id="veh31" type="veh_passenger" depart="8.41" departLane="best" from="14360292#3" to="28313549#2"/>
    <trip id="veh32" type="veh_passenger" depart="8.68" departLane="best" from="461159367" to="3701206#1"/>
    <trip id="veh33" type="veh_passenger" depart="8.96" departLane="best" departSpeed="max" from="-292056886" to="-114676402#2"/>
    <trip id="veh34" type="veh_passenger" depart="9.23" departLane="best" from="-40431788#0" to="-3731749#3"/>
    <trip id="veh35" type="veh_passenger" depart="9.50" departLane="best" departSpeed="max" from="-27332688" to="84306068"/>
    <trip id="veh36" type="veh_passenger" depart="9.77" departLane="best" from="609991208" to="55447816#1"/>
    <trip id="veh37" type="veh_passenger" depart="10.04" departLane="best" from="23157451#1" to="-1108252548#1"/>
    <trip id="veh38" type="veh_passenger" depart="10.31" departLane="best" from="-79801758" to="-116985852#0"/>
    <trip id="veh39" type="veh_passenger" depart="10.58" departLane="best" from="-338605473#2" to="-3424507#1"/>
    <trip id="veh40" type="veh_passenger" depart="10.86" departLane="best" from="147850137#1" to="3701205#8"/>
    <trip id="veh41" type="veh_passenger" depart="11.13" departLane="best" from="-17023822#1" to="-75118017#2"/>
    <trip id="veh42" type="veh_passenger" depart="11.40" departLane="best" from="-8128928#6" to="-301992140#6"/>
    <trip id="veh43" type="veh_passenger" depart="11.67" departLane="best" from="99416784#0" to="13799521#2"/>
    <trip id="veh44" type="veh_passenger" depart="11.94" departLane="best" from="-147600107#1" to="11977110"/>
    <trip id="veh45" type="veh_passenger" depart="12.21" departLane="best" from="-16771606#3" to="23124528#1"/>
    <trip id="veh46" type="veh_passenger" depart="12.48" departLane="best" from="3701206#46" to="10575879#2"/>
    <trip id="veh47" type="veh_passenger" depart="12.76" departLane="best" from="-126304906#10" to="-89557186#1"/>
    <trip id="veh48" type="veh_passenger" depart="13.03" departLane="best" from="9932333" to="147856937#1"/>
    <trip id="veh49" type="veh_passenger" depart="13.30" departLane="best" from="-93338716#0" to="578662081#1"/>
    <trip id="veh50" type="veh_passenger" depart="13.57" departLane="best" from="-10575982#8" to="-318892094#1"/>
    <trip id="veh52" type="veh_passenger" depart="14.11" departLane="best" from="-339533467#0" to="23935926#1"/>
    <trip id="veh53" type="veh_passenger" depart="14.38" departLane="best" departSpeed="max" from="-17023822#5" to="-1083999433#3"/>
    <trip id="veh54" type="veh_passenger" depart="14.65" departLane="best" from="10155837#4" to="87240819#1"/>
    <trip id="veh55" type="veh_passenger" depart="14.93" departLane="best" from="60966477#3" to="3701206#18"/>
    <trip id="veh56" type="veh_passenger" depart="15.20" departLane="best" from="119616739" to="24374859#1"/>
    <trip id="veh57" type="veh_passenger" depart="15.47" departLane="best" from="-79366166#11" to="-609991208"/>
    <trip id="veh58" type="veh_passenger" depart="15.74" departLane="best" from="-37713149#0" to="-23889543#0"/>
    <trip id="veh59" type="veh_passenger" depart="16.01" departLane="best" from="-192559637#0" to="22902502#2"/>
    <trip id="veh60" type="veh_passenger" depart="16.28" departLane="best" from="-339533476#0" to="154927950#1"/>
    <trip id="veh61" type="veh_passenger" depart="16.55" departLane="best" from="-356066431#0" to="-147856945#6"/>
    <trip id="veh62" type="veh_passenger" depart="16.83" departLane="best" departSpeed="max" from="-100599266#2" to="80341410"/>
    <trip id="veh63" type="veh_passenger" depart="17.10" departLane="best" departSpeed="max" from="-107066378#3" to="8130905#2"/>
    <trip id="veh64" type="veh_passenger" depart="17.37" departLane="best" from="-61596289#0" to="450570988#5"/>
    <trip id="veh65" type="veh_passenger" depart="17.64" departLane="best" from="39173907#4" to="-126197749#2"/>
    <trip id="veh66" type="veh_passenger" depart="17.91" departLane="best" from="-609991341#2" to="85801366#4"/>
    <trip id="veh67" type="veh_passenger" depart="18.18" departLane="best" from="14206083#0" to="126197748#3"/>
    <trip id="veh68" type="veh_passenger" depart="18.45" departLane="best" departSpeed="max" from="-126545572#1" to="351276441#1"/>
    <trip id="veh69" type="veh_passenger" depart="18.73" departLane="best" from="3424505#13" to="-192659013#22"/>
    <trip id="veh70" type="veh_passenger" depart="19.00" departLane="best" from="1084279279#12" to="16926892#0"/>
    <trip id="veh71" type="veh_passenger" depart="19.27" departLane="best" from="-3390197#0" to="61557498#3"/>
    <trip id="veh72" type="veh_passenger" depart="19.54" departLane="best" from="-892752470" to="294038585#0"/>
    <trip id="veh73" type="veh_passenger" depart="19.81" departLane="best" from="-13242369#2" to="-329520586#0"/>
    <trip id="veh74" type="veh_passenger" depart="20.08" departLane="best" from="-25806814" to="-531709659#4"/>
    <trip id="veh75" type="veh_passenger" depart="20.35" departLane="best" from="9932324#1" to="24772448#1"/>
    <trip id="veh76" type="veh_passenger" depart="20.63" departLane="best" from="967543686#3" to="141192015#1"/>
    <trip id="veh77" type="veh_passenger" depart="20.90" departLane="best" from="179540257#0" to="-311007035#0"/>
    <trip id="veh78" type="veh_passenger" depart="21.17" departLane="best" from="48997749" to="19430528#2"/>
    <trip id="veh79" type="veh_passenger" depart="21.44" departLane="best" from="-292472287#1" to="-308558745"/>
    <trip id="veh80" type="veh_passenger" depart="21.71" departLane="best" from="129912725#2" to="23239085"/>
    <trip id="veh81" type="veh_passenger" depart="21.98" departLane="best" departSpeed="max" from="-292056886" to="79002191#16"/>
    <trip id="veh82" type="veh_passenger" depart="22.25" departLane="best" from="-531802858#1" to="-133526235#0"/>
    <trip id="veh83" type="veh_passenger" depart="22.52" departLane="best" from="301909105#1" to="26410899"/>
    <trip id="veh84" type="veh_passenger" depart="22.80" departLane="best" departSpeed="max" from="-27625569#1" to="19429655#3"/>
    <trip id="veh85" type="veh_passenger" depart="23.07" departLane="best" departSpeed="max" from="813983393" to="18941709#1"/>
    <trip id="veh86" type="veh_passenger" depart="23.34" departLane="best" from="10682497" to="3731777#1"/>
    <trip id="veh87" type="veh_passenger" depart="23.61" departLane="best" from="3877007#1" to="26410169#1"/>
    <trip id="veh88" type="veh_passenger" depart="23.88" departLane="best" from="-149115999#1" to="10682325#0"/>
    <trip id="veh89" type="veh_passenger" depart="24.15" departLane="best" from="-89541111#0" to="120086001#8"/>
    <trip id="veh90" type="veh_passenger" depart="24.42" departLane="best" from="305434579#7" to="27566528#2"/>
    <trip id="veh91" type="veh_passenger" depart="24.70" departLane="best" from="968811664" to="-16274573#6"/>
    <trip id="veh92" type="veh_passenger" depart="24.97" departLane="best" departSpeed="max" from="-8129246" to="72612000#0"/>
    <trip id="veh93" type="veh_passenger" depart="25.24" departLane="best" departSpeed="max" from="553224807" to="-3450243#3"/>
    <trip id="veh94" type="veh_passenger" depart="25.51" departLane="best" from="24254167#1" to="112917233"/>
    <trip id="veh95" type="veh_passenger" depart="25.78" departLane="best" from="-88965272#1" to="3878298#1"/>
    <trip id="veh96" type="veh_passenger" depart="26.05" departLane="best" from="318218554#3" to="8128930#0"/>
    <trip id="veh97" type="veh_passenger" depart="26.32" departLane="best" from="-9904060#1" to="584356742"/>
    <trip id="veh98" type="veh_passenger" depart="26.60" departLane="best" from="139807119" to="-124042380#2"/>
    <trip id="veh99" type="veh_passenger" depart="26.87" departLane="best" from="99500150#3" to="463634003#4"/>
    <trip id="veh100" type="veh_passenger" depart="27.14" departLane="best" departSpeed="max" from="9262256" to="8129246"/>
    <trip id="veh102" type="veh_passenger" depart="27.68" departLane="best" from="112565986#0" to="301552210#0"/>
    <trip id="veh103" type="veh_passenger" depart="27.95" departLane="best" from="-8128930#6" to="-126197750#2"/>
    <trip id="veh104" type="veh_passenger" depart="28.22" departLane="best" from="-75118017#6" to="972117960#1"/>
    <trip id="veh105" type="veh_passenger" depart="28.50" departLane="best" from="-3390197#3" to="-3731776#0"/>
    <trip id="veh106" type="veh_passenger" depart="28.77" departLane="best" from="101619135#7" to="10575982#5"/>
    <trip id="veh107" type="veh_passenger" depart="29.04" departLane="best" from="876185327" to="9932327#4"/>
    <trip id="veh108" type="veh_passenger" depart="29.31" departLane="best" from="14359730#2" to="314629143#1"/>
    <trip id="veh109" type="veh_passenger" depart="29.58" departLane="best" from="22357838#7" to="-439142859#7"/>
    <trip id="veh110" type="veh_passenger" depart="29.85" departLane="best" departSpeed="max" from="9260775#0" to="192659005#0"/>
    <trip id="veh111" type="veh_passenger" depart="30.12" departLane="best" from="134969629#4" to="34145810#0"/>
    <trip id="veh112" type="veh_passenger" depart="30.39" departLane="best" from="125835508#3" to="-800673084#0"/>
    <trip id="veh113" type="veh_passenger" depart="30.67" departLane="best" from="-11994546" to="53203693#1"/>
    <trip id="veh114" type="veh_passenger" depart="30.94" departLane="best" from="22476420#1" to="886816865"/>
    <trip id="veh115" type="veh_passenger" depart="31.21" departLane="best" from="-138017384#0" to="-25928482#0"/>
    <trip id="veh116" type="veh_passenger" depart="31.48" departLane="best" from="179540256" to="27625566#1"/>
    <trip id="veh117" type="veh_passenger" depart="31.75" departLane="best" from="301569184#1" to="19169102#2"/>
    <trip id="veh118" type="veh_passenger" depart="32.02" departLane="best" from="-688347311#0" to="3424505#4"/>
    <trip id="veh119" type="veh_passenger" depart="32.29" departLane="best" from="17773079#4" to="23041397#2"/>
    <trip id="veh120" type="veh_passenger" depart="32.57" departLane="best" from="-872944179#0" to="192706265#3"/>
    <trip id="veh121" type="veh_passenger" depart="32.84" departLane="best" from="126197749#14" to="81457873#3"/>
    <trip id="veh122" type="veh_passenger" depart="33.11" departLane="best" from="-25983368#0" to="-311007042#1"/>
    <trip id="veh123" type="veh_passenger" depart="33.38" departLane="best" from="-301992138#16" to="96705555#1"/>
    <trip id="veh124" type="veh_passenger" depart="33.65" departLane="best" from="24359340#0" to="453808500#1"/>
    <trip id="veh125" type="veh_passenger" depart="33.92" departLane="best" departSpeed="max" from="-414004227#1" to="344507814#1-AddedOnRampEdge"/>
    <trip id="veh126" type="veh_passenger" depart="34.19" departLane="best" departSpeed="max" from="-131480743#1" to="116692562#4"/>
    <trip id="veh127" type="veh_passenger" depart="34.47" departLane="best" from="-99500134#1" to="9932337"/>
    <trip id="veh128" type="veh_passenger" depart="34.74" departLane="best" departSpeed="max" from="-131632250#2" to="-30050534#2"/>
    <trip id="veh129" type="veh_passenger" depart="35.01" departLane="best" from="-3390197#3" to="813979472"/>
    <trip id="veh130" type="veh_passenger" depart="35.28" departLane="best" from="-633919766#2" to="-663909835"/>
    <trip id="veh131" type="veh_passenger" depart="35.55" departLane="best" departSpeed="max" from="-687571021" to="23041921#2"/>
    <trip id="veh132" type="veh_passenger" depart="35.82" departLane="best" departSpeed="max" from="43547540" to="-301615094#13"/>
    <trip id="veh133" type="veh_passenger" depart="36.09" departLane="best" from="192659013#17" to="978148216"/>
    <trip id="veh134" type="veh_passenger" depart="36.37" departLane="best" from="-23121371#2" to="-105145353#0"/>
    <trip id="veh135" type="veh_passenger" depart="36.64" departLane="best" departSpeed="max" from="3996947#0" to="-450119553"/>
    <trip id="veh136" type="veh_passenger" depart="36.91" departLane="best" from="23707022#1" to="832174478"/>
    <trip id="veh137" type="veh_passenger" depart="37.18" departLane="best" from="192559607#3" to="-18187856#6"/>
    <trip id="veh138" type="veh_passenger" depart="37.45" departLane="best" from="-165498335#1" to="17411048#1"/>
    <trip id="veh139" type="veh_passenger" depart="37.72" departLane="best" from="-3450246" to="-22476420#0"/>
    <trip id="veh140" type="veh_passenger" depart="37.99" departLane="best" from="292472307#0" to="28313551#0"/>
    <trip id="veh141" type="veh_passenger" depart="38.27" departLane="best" from="-225605571" to="3701206#27"/>
    <trip id="veh142" type="veh_passenger" depart="38.54" departLane="best" from="-11296122#2" to="79002191#15"/>
    <trip id="veh143" type="veh_passenger" depart="38.81" departLane="best" from="48446147#1" to="-151093189#0"/>
    <trip id="veh144" type="veh_passenger" depart="39.08" departLane="best" from="-89541111#0" to="-3871574#0"/>
    <trip id="veh145" type="veh_passenger" depart="39.35" departLane="best" from="-101619135#11" to="3701201#29"/>
    <trip id="veh146" type="veh_passenger" depart="39.62" departLane="best" from="22712907#0" to="3701205#18"/>
    <trip id="veh147" type="veh_passenger" depart="39.89" departLane="best" from="324280975#0" to="-17268861#2"/>
    <trip id="veh148" type="veh_passenger" depart="40.16" departLane="best" from="-92130714#1" to="-10575878#6"/>
    <trip id="veh149" type="veh_passenger" depart="40.44" departLane="best" departSpeed="max" from="-132706361#3" to="686098029#5"/>
    <trip id="veh151" type="veh_passenger" depart="40.98" departLane="best" from="-439142857#2" to="192659022#1"/>
    <trip id="veh152" type="veh_passenger" depart="41.25" departLane="best" from="-194820336#6" to="192659005#3"/>
    <trip id="veh153" type="veh_passenger" depart="41.52" departLane="best" departSpeed="max" from="-3991616" to="75408057"/>
    <trip id="veh154" type="veh_passenger" depart="41.79" departLane="best" from="-3731762#0" to="578662078#1"/>
    <trip id="veh155" type="veh_passenger" depart="42.06" departLane="best" from="725072196" to="290745698#1"/>
    <trip id="veh156" type="veh_passenger" depart="42.34" departLane="best" from="-318218551" to="16925932#0"/>
    <trip id="veh157" type="veh_passenger" depart="42.61" departLane="best" from="-35731415#2" to="687571021"/>
    <trip id="veh158" type="veh_passenger" depart="42.88" departLane="best" from="-81457879#1" to="-23041909#0"/>
    <trip id="veh159" type="veh_passenger" depart="43.15" departLane="best" from="-22357838#1" to="8130985#1"/>
    <trip id="veh160" type="veh_passenger" depart="43.42" departLane="best" from="564392135#2" to="947594504"/>
    <trip id="veh161" type="veh_passenger" depart="43.69" departLane="best" from="3990533#1" to="67413191"/>
    <trip id="veh162" type="veh_passenger" depart="43.96" departLane="best" from="-11028337#0" to="3351203#2"/>
    <trip id="veh163" type="veh_passenger" depart="44.24" departLane="best" from="456815189#1" to="8131716"/>
    <trip id="veh164" type="veh_passenger" depart="44.51" departLane="best" from="38241794#3" to="608715533#1"/>
    <trip id="veh165" type="veh_passenger" depart="44.78" departLane="best" from="3990533#1" to="3701213"/>
    <trip id="veh166" type="veh_passenger" depart="45.05" departLane="best" from="3701204#22" to="-17505229#0"/>
    <trip id="veh167" type="veh_passenger" depart="45.32" departLane="best" from="-608715598#3" to="569969136#2"/>
    <trip id="veh168" type="veh_passenger" depart="45.59" departLane="best" from="-28352298#2" to="425777009#1"/>
    <trip id="veh169" type="veh_passenger" depart="45.86" departLane="best" from="1047365121#0" to="-4859483"/>
    <trip id="veh170" type="veh_passenger" depart="46.14" departLane="best" from="3731751#2" to="-317267606#0"/>
    <trip id="veh172" type="veh_passenger" depart="46.68" departLane="best" from="439142856#1" to="608715536#2"/>
    <trip id="veh173" type="veh_passenger" depart="46.95" departLane="best" from="911185684" to="-39173907#0"/>
    <trip id="veh174" type="veh_passenger" depart="47.22" departLane="best" from="22902475#0" to="-982974944#5"/>
    <trip id="veh175" type="veh_passenger" depart="47.49" departLane="best" from="95974716#0" to="15093236"/>
    <trip id="veh176" type="veh_passenger" depart="47.76" departLane="best" from="825894745#0" to="-18187856#4"/>
    <trip id="veh177" type="veh_passenger" depart="48.03" departLane="best" from="-92852752#3" to="24374858"/>
    <trip id="veh178" type="veh_passenger" depart="48.31" departLane="best" from="-89557186#7" to="3701206#5"/>
    <trip id="veh179" type="veh_passenger" depart="48.58" departLane="best" from="-16766888#1" to="-1082911139#0"/>
    <trip id="veh181" type="veh_passenger" depart="49.12" departLane="best" from="192559607#1" to="13823568#2"/>
    <trip id="veh182" type="veh_passenger" depart="49.39" departLane="best" from="-79002191#1" to="192559622#1"/>
    <trip id="veh183" type="veh_passenger" depart="49.66" departLane="best" from="-326736767" to="303392599#0"/>
    <trip id="veh184" type="veh_passenger" depart="49.93" departLane="best" from="-10150744#3" to="8129167"/>
    <trip id="veh185" type="veh_passenger" depart="50.21" departLane="best" from="-131711638#5" to="317846810#3"/>
    <trip id="veh186" type="veh_passenger" depart="50.48" departLane="best" from="325166038#0" to="27119910#1"/>
    <trip id="veh187" type="veh_passenger" depart="50.75" departLane="best" departSpeed="max" from="-637839684" to="-132580429#0"/>
    <trip id="veh188" type="veh_passenger" depart="51.02" departLane="best" from="23707218#3" to="-649098638"/>
    <trip id="veh189" type="veh_passenger" depart="51.29" departLane="best" from="40017749#7" to="-512404000#7"/>
    <trip id="veh190" type="veh_passenger" depart="51.56" departLane="best" from="297017195#0" to="-456815189#0"/>
    <trip id="veh191" type="veh_passenger" depart="51.83" departLane="best" from="-3992542#0" to="100599277#0"/>
    <trip id="veh192" type="veh_passenger" depart="52.11" departLane="best" departSpeed="max" from="-8129244" to="-43547540"/>
    <trip id="veh193" type="veh_passenger" depart="52.38" departLane="best" from="-187498438" to="105447710#3"/>
    <trip id="veh194" type="veh_passenger" depart="52.65" departLane="best" from="-8314100#1" to="27625969#1"/>
    <trip id="veh195" type="veh_passenger" depart="52.92" departLane="best" from="75407897#4" to="22912669#3"/>
    <trip id="veh196" type="veh_passenger" depart="53.19" departLane="best" departSpeed="max" from="-38245536" to="16771606#4"/>
    <trip id="veh197" type="veh_passenger" depart="53.46" departLane="best" departSpeed="max" from="-100599266#2" to="40431788#0"/>
    <trip id="veh198" type="veh_passenger" depart="53.73" departLane="best" from="9262546" to="192659011"/>
    <trip id="veh199" type="veh_passenger" depart="54.01" departLane="best" from="-23124516#0" to="11977197#2"/>
    <trip id="veh200" type="veh_passenger" depart="54.28" departLane="best" from="-98738450#0" to="-301552209#0"/>
    <trip id="veh201" type="veh_passenger" depart="54.55" departLane="best" from="107068083#3" to="-76845001#3"/>
    <trip id="veh202" type="veh_passenger" depart="54.82" departLane="best" from="3731761#8" to="23707010#0"/>
    <trip id="veh203" type="veh_passenger" depart="55.09" departLane="best" from="-141114449" to="-14032522"/>
    <trip id="veh204" type="veh_passenger" depart="55.36" departLane="best" from="22360829#18" to="-69969482#10"/>
    <trip id="veh205" type="veh_passenger" depart="55.63" departLane="best" from="40017749#12" to="344507794"/>
    <trip id="veh206" type="veh_passenger" depart="55.90" departLane="best" from="-243915691#0" to="-311007034"/>
    <trip id="veh207" type="veh_passenger" depart="56.18" departLane="best" departSpeed="max" from="-25767174#1" to="-1104103722#1"/>
    <trip id="veh208" type="veh_passenger" depart="56.45" departLane="best" departSpeed="max" from="-310961079" to="123929457#4"/>
    <trip id="veh209" type="veh_passenger" depart="56.72" departLane="best" from="-4859499" to="-135016290"/>
    <trip id="veh210" type="veh_passenger" depart="56.99" departLane="best" from="-85801366#0" to="23237286#2"/>
    <trip id="veh211" type="veh_passenger" depart="57.26" departLane="best" departSpeed="max" from="-24476910" to="292472285"/>
    <trip id="veh212" type="veh_passenger" depart="57.53" departLane="best" from="-1159503591" to="128629280"/>
    <trip id="veh213" type="veh_passenger" depart="57.80" departLane="best" from="23157554#3" to="-10269420#1"/>
    <trip id="veh214" type="veh_passenger" depart="58.08" departLane="best" from="3343957#6" to="3701201#11"/>
    <trip id="veh215" type="veh_passenger" depart="58.35" departLane="best" departSpeed="max" from="-163223425#5" to="-10649851#9"/>
    <trip id="veh216" type="veh_passenger" depart="58.62" departLane="best" from="-23124528#1" to="-87791719"/>
    <trip id="veh217" type="veh_passenger" depart="58.89" departLane="best" from="125835557#2" to="-124042380#0"/>
    <trip id="veh218" type="veh_passenger" depart="59.16" departLane="best" from="-318216947#3" to="3677945#2"/>
    <trip id="veh219" type="veh_passenger" depart="59.43" departLane="best" from="10268975#1" to="3991636#2"/>
    <trip id="veh220" type="veh_passenger" depart="59.70" departLane="best" from="23949624#3" to="9810422#1"/>
    <trip id="veh221" type="veh_passenger" depart="59.98" departLane="best" from="-179540260#0" to="86249619#0"/>
    <trip id="veh222" type="veh_passenger" depart="60.25" departLane="best" from="69162804#3" to="22902245#1"/>
    <trip id="veh223" type="veh_passenger" depart="60.52" departLane="best" from="-295225456#0" to="-133801038"/>
    <trip id="veh224" type="veh_passenger" depart="60.79" departLane="best" from="-43068934" to="16771606#2"/>
    <trip id="veh225" type="veh_passenger" depart="61.06" departLane="best" from="71745449" to="339533464"/>
    <trip id="veh226" type="veh_passenger" depart="61.33" departLane="best" from="-1081668369" to="3701201#9"/>
    <trip id="veh227" type="veh_passenger" depart="61.60" departLane="best" departSpeed="max" from="-311628795#3" to="23837544"/>
    <trip id="veh228" type="veh_passenger" depart="61.88" departLane="best" from="-192658997#0" to="-14360292#3"/>
    <trip id="veh229" type="veh_passenger" depart="62.15" departLane="best" from="205989652" to="384913439"/>
    <trip id="veh230" type="veh_passenger" depart="62.42" departLane="best" departSpeed="max" from="-135475487" to="4009881"/>
    <trip id="veh231" type="veh_passenger" depart="62.69" departLane="best" from="-3450243#6" to="-608715514"/>
    <trip id="veh232" type="veh_passenger" depart="62.96" departLane="best" departSpeed="max" from="133526235#0" to="-204894096#1"/>
    <trip id="veh233" type="veh_passenger" depart="63.23" departLane="best" departSpeed="max" from="-293834028" to="292347092#2"/>
    <trip id="veh234" type="veh_passenger" depart="63.50" departLane="best" from="-28352298#1" to="-126304965#3"/>
    <trip id="veh235" type="veh_passenger" depart="63.78" departLane="best" from="-8177668#0" to="16274573#3"/>
    <trip id="veh236" type="veh_passenger" depart="64.05" departLane="best" departSpeed="max" from="-86249598" to="-28370182#0"/>
    <trip id="veh237" type="veh_passenger" depart="64.32" departLane="best" departSpeed="max" from="-87304305#2" to="79002190#1"/>
    <trip id="veh238" type="veh_passenger" depart="64.59" departLane="best" from="-16927056#0" to="292347113#0"/>
    <trip id="veh239" type="veh_passenger" depart="64.86" departLane="best" from="-521257400#1" to="35824178"/>
    <trip id="veh241" type="veh_passenger" depart="65.40" departLane="best" from="-571659535#3" to="3450243#1"/>
    <trip id="veh242" type="veh_passenger" depart="65.67" departLane="best" from="304241968" to="87240813"/>
    <trip id="veh243" type="veh_passenger" depart="65.95" departLane="best" from="-872931754#0" to="340265919"/>
    <trip id="veh244" type="veh_passenger" depart="66.22" departLane="best" from="13799528#0" to="-22360829#16"/>
    <trip id="veh245" type="veh_passenger" depart="66.49" departLane="best" departSpeed="max" from="-279800095" to="-301992140#8"/>
    <trip id="veh246" type="veh_passenger" depart="66.76" departLane="best" from="-9562310" to="-11256343#0"/>