<?xml version="1.0" encoding="UTF-8"?>

<!-- generated on 2024-01-25 10:54:19 by Eclipse SUMO duarouter Version 1.19.0
<configuration xmlns:xsi="http://www.w3.org/2001/XMLSchema-instance" xsi:noNamespaceSchemaLocation="http://sumo.dlr.de/xsd/duarouterConfiguration.xsd">

    <input>
        <net-file value="Sumo/osm.net.xml"/>
        <route-files value="Sumo/proportional_traffic_demand.xml"/>
    </input>

    <output>
        <output-file value="Sumo/proportional_traffic_demand.rou.xml"/>
    </output>

    <processing>
        <weights.random-factor value="255"/>
    </processing>

</configuration>
-->

<routes xmlns:xsi="http://www.w3.org/2001/XMLSchema-instance" xsi:noNamespaceSchemaLocation="http://sumo.dlr.de/xsd/routes_file.xsd">
    <vType id="type1" length="5.00" maxSpeed="70.00" accel="2.6" decel="4.5" sigma="0.5"/>
    <vehicle id="c0.0" type="type1" depart="0.00" departLane="random">
        <route edges="79501548#0 344507809 344507803#0 344507803#1 90634068#0 19787336-AddedOnRampEdge 19787336 192689379 192689382#0 339533466#0 80342115 -92326679#1 -79940705#9 -79940705#6 -608916230 -80341408#2 -742307327#1 -742307327#0 -742307325 -742307323 -152919736#2 -499072205#2 -1036486947#1 1036486949#0 485802425#0 -23707242#1 -608715582#1 -608715586#3 -3992546 -10230617 -1217801803#3 -23707243#2 -23707243#1 -23707244 125835524#0 61556877#0 584356749 584356742 451873774#0 -116797180 4884707 19793164 80458208 -89574079 1115244401 305434579#0 26085018#0 14971387#0 -8055845#0 578662094#1 3991636#0 174985125 3991635#0"/>
    </vehicle>
    <vehicle id="c1.0" type="type1" depart="0.00" departLane="random">
        <route edges="-608715603 79366164 79366167 79366165 125835500 35633068#0 429571921 -125835568#1 -23707244 125835524#0 61556877#0 584356749 584356742 451873774#0 -116797180 4884707 19793164 80458208 -89574079 1115244401 305434579#0 305434579#7 8055845#0 -8055845#0 578662094#1 3991636#0 174985125 3991635#0"/>
    </vehicle>
    <vehicle id="c10.0" type="type1" depart="0.00" departLane="random">
        <route edges="-662329847 662329851#1 725072187 725072194#0 725072194#1 3351198 -608715532#1 -342997240 -3991778 3991775#0 199381120 24905254 24905255#0 24905256#0 24905256#2 857806575 857806576 8130905#0 4003928 863272997 4003927#2 4003927#5 19793254 4884714#0 254811217#0 85044941 263138306 61540068 254801390 340265962 949615544#0 98825484 304241967 304241968 29283599#0 510790348 314635787#0 314635787#1 314635787#2 -126415113#1 -99500153#2 -99500158 -3992549#5 -3992549#3 126348346#0 126348346#3 126348346#6 125835549#0 125835549#2 125835549#3 125835569 -608715546 3991635#0"/>
    </vehicle>
    <vehicle id="c11.0" type="type1" depart="0.00" departLane="random">
        <route edges="-37713149#1 -1155226687 -377918607 -351000218#2 440732692#0 345381438#0 -198676304 -198676305#1 118943956 -340265959 -98807522 -22906977 -126304934 98807521#0 98807520 -23041938#1 -192559611#7 -192559613#0 622063652#0 305316103 568941304 338057819 425777009#0 29283599#0 510790348 314635787#0 314635787#1 314635787#2 -126415113#1 -99500153#2 -99500158 -3992549#5 -3992549#3 126348346#0 126348346#3 126348346#6 125835549#0 125835549#2 125835549#3 125835569 -608715546 3991635#0"/>
    </vehicle>
    <vehicle id="c12.0" type="type1" depart="0.00" departLane="random">
        <route edges="-320989025#3 -3358666#2 3358666#0 320989025#0 72856963 64487971#0 23098341#0 608715558 488932567#0 351276438#0 443972008#1 443972014#0 351276443#1 192659010 85044935#0 3390192 461159345 88361317#0 3677944#0 3677944#1 174338458#1 521193380 429706864 813979472 79289746 813979470 249333186 249333185 8131121 8131121-AddedOffRampEdge 1081668996 3358667 8127689 23837544-AddedOnRampEdge 23837544 438252639 125835624#0 507005804 148252702#0 608715517 -304584473 -608715514 -1044729460#3 -1044729460#0 -3871577#3 -3871577#0 -284664272#5 -284664272#1 -284664268 -438252643#2 125835563#0 -13865507#2 292233691#0 -126304963#1 3992583#0 126348346#0 126348346#3 126348346#6 125835549#0 125835549#2 125835549#3 125835569 -608715546 3991635#0"/>
    </vehicle>
    <vehicle id="c13.0" type="type1" depart="0.00" departLane="random">
        <route edges="-662329847 662329846 662329835 -608715566 -439142857#3 3677822#0 608715575#0 608715575#1 120086001#0 120086001#1 120086001#2 120086001#3 120086001#4 120086001#6 120086001#8 120086001#9 3991775#0 199381120 24905254 24905255#0 24905256#0 24905256#2 857806575 857806576 8130905#0 4003928 863272997 4003927#2 4003927#5 19793254 4884714#0 254811217#0 85044941 263138306 61540068 254801390 61540098 61540078#0 23691158 254800931 8133608#0 -316395269#4 -25983368#7 -25983368#4 -25983368#1 -26085017#6 -26085017#2 -456815187#1 14971387#0 -8055845#0 578662094#1 3991636#0 174985125 3991635#0"/>
    </vehicle>
    <vehicle id="c14.0" type="type1" depart="0.00" departLane="random">
        <route edges="3343973#0 8127646 -608715532#1 -342997240 -3991778 3991775#0 199381120 24905254 24905255#0 24905256#0 24905256#2 857806575 857806576 8130905#0 4003928 863272997 4003927#2 4003927#5 19793254 4884714#0 254811217#0 85044941 263138306 61540068 254801390 61540098 61540078#0 23691158 254800931 8133608#0 -316395269#4 -25983368#7 -25983368#4 -25983368#1 -26085017#6 -26085017#2 -456815187#1 14971387#0 -8055845#0 578662094#1 3991636#0 174985125 3991635#0"/>
    </vehicle>
    <vehicle id="c15.0" type="type1" depart="0.00" departLane="random">
        <route edges="79501548#0 344507809 344507803#0 344507803#1 344507798#0 194333896#2 90982400#0 633254748#0 79002193#0 -105447589#5 105447667 192658996#1 192658996#5 96768814#0 281817948 -79002196#2 85798761 8074632#0 733824370#0 858200640#0 -83869544 20681417#0 17023727 672505868 -499072205#2 -1036486947#1 1036486949#0 485802425#0 -23707242#1 -608715582#1 -608715586#3 -3992546 -10230617 -1217801803#3 -23707243#2 -23707243#1 -23707244 125835524#0 61556877#0 584356749 584356742 451873774#0 -116797180 4884707 19793164 80458208 -89574079 1115244401 305434579#0 305434579#7 578662094#1 3991636#0 174985125 3991635#0"/>
    </vehicle>
    <vehicle id="c16.0" type="type1" depart="0.00" departLane="random">
        <route edges="-37713149#1 -1155226687 -377918607 -351000218#2 4004855#0 345381453 345381481#0 949701271-AddedOnRampEdge 949701271 345381442 13884500 4884478 345592227 4858224 292472285 79501549 292472305 949703711 139807120#0 192559621 292472310#0 292472297 292472294 148252690#0 148252706 148252702#0 608715517 -304584473 -608715514 -1044729460#3 -1044729460#0 -3871577#3 -3871577#0 -284664272#5 -284664272#1 -284664268 -438252643#2 125835563#0 -13865507#2 292233691#0 -126304963#1 3992583#0 126348346#0 126348346#3 126348346#6 125835549#0 3991683#0 125835549#3 125835569 -608715546 3991635#0"/>
    </vehicle>
    <vehicle id="c17.0" type="type1" depart="0.00" departLane="random">
        <route edges="112917249 79801761 61596758 -112917248 -192706263 126304929 11093957 14359736 23949622#1 23949624#0 -87384540 -192359870#5 -191992024#8 -911328778#1 -191992025 -191992026#2 -1089609634#1 -1089609641#1 -485293334#1 -940919067 688336519#0 -521257409#8 -521257409#5 -521257409#4 -521257409#1 -24905455#6 -24905455#4 -24905455#0 -608715553#4 -608715553#3 -61596289#0 -23707243#2 -23707243#1 -23707244 125835524#0 61556877#0 584356749 584356742 451873774#0 -116797180 4884707 19793164 80458208 -89574079 1115244401 305434579#0 305434579#7 578662094#1 3991636#0 174985125 3991635#0"/>
    </vehicle>
    <vehicle id="c18.0" type="type1" depart="0.00" departLane="random">
        <route edges="4061636#0 192659011 461159358 192659022#0 3424504#0 -3424505#11 -3424505#3 -3424505#2 -521257400#1 429706864 813979472 79289746 813979470 249333186 249333185 8131121 8131121-AddedOffRampEdge 225605630 23837544-AddedOnRampEdge 23837544 438252639 125835624#0 507005804 148252702#0 608715517 -304584473 -608715514 -1044729460#3 -1044729460#0 -3871577#3 -3871577#0 -284664272#5 -284664272#1 8412197#0 8412197#5 8412197#11 126409539 -99500130#2 844373391#0 10269420#0 99500129 -3992549#5 -3992549#3 126348346#0 126348346#3 126348346#6 125835549#0 3991683#0 125835549#3 125835569 -608715546 3991635#0"/>
    </vehicle>
    <vehicle id="c19.0" type="type1" depart="0.00" departLane="random">
        <route edges="3677822#0 608715575#0 608715575#1 120086001#0 120086001#1 126197746#0 303392599#2 48446227 120086001#4 120086001#6 120086001#8 120086001#9 3991775#0 199381120 24905254 24905255#0 24905256#0 24905256#2 857806575 857806576 8130905#0 4003928 863272997 4003927#2 4003927#5 19793254 4884714#0 254811217#0 85044941 263138306 61540068 254801390 340265962 949615544#0 98825484 304241967 304241968 29283599#0 510790348 314635787#0 314635787#1 314635787#2 -126415113#1 -99500153#2 -99500158 -3992549#5 -3992549#3 126348346#0 126348346#3 126348346#6 125835549#0 125835549#2 125835549#3 125835569 -608715546 3991635#0"/>
    </vehicle>
    <vehicle id="c2.0" type="type1" depart="0.00" departLane="random">
        <route edges="521257409#6 688336520#0 688336521 485293334#0 -485293334#1 -940919067 688336519#0 -521257409#8 -521257409#5 -521257409#4 -521257409#1 -24905455#6 -24905455#4 -24905455#0 -608715553#4 -608715553#3 -61596289#0 -23707243#2 -23707243#1 -23707244 125835524#0 61556877#0 584356749 584356742 451873774#0 -116797180 4884707 19793164 80458208 -89574079 1115244401 305434579#0 26085018#0 14971387#0 -8055845#0 578662094#1 3991636#0 174985125 3991635#0"/>
    </vehicle>
    <vehicle id="c20.0" type="type1" depart="0.00" departLane="random">
        <route edges="3343954#0 589006899 670002675 898173878 3343975#0 3343975#5 3343975#6 3343975#7 1063831485 1063831486#1 1063831514 1063831513 4003927#5 19793254 4884714#0 254811217#0 85044941 263138306 61540068 254801390 61540098 61540078#0 23691158 254800931 8133608#0 -316395269#4 -25983368#7 -25983368#4 -25983368#1 -26085017#6 -26085017#2 -456815187#1 14971387#0 -8055845#0 578662094#1 3991636#0 174985125 3991635#0"/>
    </vehicle>
    <vehicle id="c21.0" type="type1" depart="0.00" departLane="random">
        <route edges="78627821 41403544#0 813970227 78568455#0 28982660 813979473 192559626 192559627#0 429706864 813979472 79289746 813979470 249333186 249333185 8131121 8131121-AddedOffRampEdge 225605630 23837544-AddedOnRampEdge 23837544 146171871 3877105 8131125 3993387 109267417 3993388 1085888987 254800932#0 23691158 254800931 8133608#0 -316395269#4 -25983368#7 -25983368#4 -25983368#1 -26085017#6 -26085017#2 -456815187#1 14971387#0 -8055845#0 578662094#1 3991636#0 174985125 3991635#0"/>
    </vehicle>
    <vehicle id="c22.0" type="type1" depart="0.00" departLane="random">
        <route edges="-301615094#18 -301615094#17 -301615094#10 -301615094#6 -301615094#3 -301615094#1 -124042417 -79002196#2 85798761 8074632#0 733824370#0 858200640#0 -83869544 20681417#0 17023727 672505868 -499072205#2 -1036486947#1 1036486949#0 485802425#0 -23707242#1 -608715582#1 -608715586#3 -3992546 -10230617 -1217801803#3 -23707243#2 -23707243#1 -23707244 125835524#0 61556877#0 584356749 584356742 451873774#0 -116797180 4884707 19793164 80458208 -89574079 1115244401 305434579#0 305434579#7 578662094#1 3991636#0 174985125 3991635#0"/>
    </vehicle>
    <vehicle id="c23.0" type="type1" depart="0.00" departLane="random">
        <route edges="-662329847 662329851#1 -725072190 3343974#0 3343974#1 725072198 -94391250 8127648#0 86164005#0 86164005#1 3677330#0 23237287#0 3677335#0 461159367 461159362#0 461159345 88361317#0 3677944#0 3677944#1 174338458#1 521193380 -578662086 -123929657#1 -961131597#2 -961131597#0 -3358675 1085069643 1085069641#0 1085069641#1 843033243#0 843033242#2 8129915#0 -3871577#3 -3871577#0 -284664272#5 -284664272#1 8412197#0 8412197#5 8412197#11 126409539 -99500130#2 844373391#0 10269420#0 99500129 -3992549#5 -3992549#3 126348346#0 126348346#3 126348346#6 125835549#0 125835549#2 125835549#3 125835569 -608715546 3991635#0"/>
    </vehicle>
    <vehicle id="c24.0" type="type1" depart="0.00" departLane="random">
        <route edges="4061636#0 192659011 461159358 192659022#0 3424504#0 -3424505#11 -3424505#3 -3424505#2 -521257400#1 429706864 813979472 79289746 813979470 249333186 249333185 8131121 8131121-AddedOffRampEdge 225605630 23837544-AddedOnRampEdge 23837544 146171871 3877105 8131125 3993387 109267417 3993388 1085888987 254800932#0 23691158 254800931 62268125 263138305#0 44932918#0 12714939 320591282#0 61556877#0 584356749 584356742 451873774#0 -116797180 4884707 19793164 80458208 -89574079 1115244401 305434579#0 305434579#7 578662094#1 3991636#0 174985125 3991635#0"/>
    </vehicle>
    <vehicle id="c25.0" type="type1" depart="0.00" departLane="random">
        <route edges="-608715603 79366164 79366167 79366165 125835500 35633068#0 429571921 -125835568#1 -23707244 125835524#0 61556877#0 584356749 584356742 451873774#0 -116797180 4884707 19793164 80458208 -89574079 1115244401 305434579#0 305434579#7 578662094#1 3991636#0 174985125 3991635#0"/>
    </vehicle>
    <vehicle id="c26.0" type="type1" depart="0.00" departLane="random">
        <route edges="3343954#0 589006899 670002675 898173878 3343975#0 3343975#5 3343975#6 896195847 -3343969#1 1063831486#1 1063831514 1063831513 4003927#5 19793254 4884714#0 254811217#0 85044941 263138306 61540068 254801390 340265962 949615544#0 98825484 304241967 304241968 29283599#0 510790348 314635787#0 314635787#1 314635787#2 -126415113#1 -99500153#2 -99500158 -3992549#5 -3992549#3 126348346#0 126348346#3 126348346#6 125835549#0 125835549#2 125835549#3 125835569 -608715546 3991635#0"/>
    </vehicle>
    <vehicle id="c27.0" type="type1" depart="0.00" departLane="random">
        <route edges="-662329847 662329846 662329840 3343974#1 725072198 -94391250 8127648#0 86164005#0 86164005#1 3677330#0 23237287#0 3677335#0 461159367 461159362#0 461159345 88361317#0 3677944#0 3677944#1 174338458#1 521193380 429706864 813979472 79289746 813979470 249333186 249333185 8131121 8131121-AddedOffRampEdge 225605630 23837544-AddedOnRampEdge 23837544 146171871 3877105 8131125 3993387 109267417 3993388 1085888987 254800932#0 23691158 254800931 8133608#0 -316395269#4 -25983368#7 -25983368#4 -25983368#1 -26085017#6 -26085017#2 -456815187#1 14971387#0 -8055845#0 578662094#1 3991636#0 174985125 3991635#0"/>
    </vehicle>
    <vehicle id="c28.0" type="type1" depart="0.00" departLane="random">
        <route edges="112917227#0 23707241 25155107#0 61596558#0 126304939#0 -1010515587#1 -25155106#2 128494230 -126304967#6 -126304967#4 -126304967#1 -61596289#0 -23707243#2 -23707243#1 -23707244 125835524#0 61556877#0 584356749 584356742 451873774#0 -116797180 4884707 19793164 80458208 -89574079 1115244401 305434579#0 305434579#7 578662094#1 3991636#0 174985125 3991635#0"/>
    </vehicle>
    <vehicle id="c29.0" type="type1" depart="0.00" departLane="random">
        <route edges="26410313#0 25933419#6 -17414466#8 -17414466#7 -17414466#6 -17414466#5 -17414466#4 -17414466#2 -17414466#1 -17414466#0 -430047989#1 -125835570 -294365637 -3871574#3 -293787287#6 -293787287#2 -8412180#2 -99500130#2 844373391#0 10269420#0 99500129 -3992549#5 -3992549#3 126348346#0 126348346#3 126348346#6 125835549#0 125835549#2 125835549#3 125835569 -608715546 3991635#0"/>
    </vehicle>
    <vehicle id="c3.0" type="type1" depart="0.00" departLane="random">
        <route edges="430047989#6 -430047989#8 -430047989#5 -430047989#3 -430047989#2 -430047989#1 -125835570 -294365637 -3871574#3 -293787287#6 -293787287#2 -8412180#2 -99500130#2 844373391#0 10269420#0 99500129 -3992549#5 -3992549#3 126348346#0 126348346#3 126348346#6 125835549#0 3991683#0 125835549#3 125835569 -608715546 3991635#0"/>
    </vehicle>
    <vehicle id="c30.0" type="type1" depart="0.00" departLane="random">
        <route edges="120086152 3358661 -120086151#1 -578662085 -301552215 956394197#0 -301552213#2 -85799069#1 -301552211#1 -301552210#2 174886300 120125393#3 578662068 174886292 174886289 3328222#0 3677330#0 23237287#0 3677335#0 461159367 461159362#0 461159345 88361317#0 3677944#0 3677944#1 174338458#1 521193380 -578662086 -123929657#1 -961131597#2 -961131597#0 -3358675 1085069643 1085069641#0 1085069641#1 843033243#0 843033242#2 8129915#0 8129915#5 8129915#9 -148251239#1 -60966477#4 -60966478#1 -8412180#2 -99500130#2 844373391#0 10269420#0 99500129 -3992549#5 -3992549#3 126348346#0 126348346#3 126348346#6 125835549#0 3991683#0 125835549#3 125835569 -608715546 3991635#0"/>
    </vehicle>
    <vehicle id="c31.0" type="type1" depart="0.00" departLane="random">
        <route edges="26410313#0 -25933419#5 -25933419#2 -25933419#1 25933421#0 25933421#2 10155462#4 10155462#1 -25933426#1 3876851#3 622063652#0 305316103 568941304 338057819 425777009#0 29283599#0 510790348 314635787#0 314635787#1 314635787#2 -126415113#1 -99500153#2 -99500158 -3992549#5 -3992549#3 126348346#0 126348346#3 126348346#6 125835549#0 125835549#2 125835549#3 125835569 -608715546 3991635#0"/>
    </vehicle>
    <vehicle id="c32.0" type="type1" depart="0.00" departLane="random">
        <route edges="78627821 813970230 249333187 249333181#0 249333181#3 -189453001 189453002 79289753#0 189453003#1 189453003#2 189453003#3 -961131597#2 -961131597#0 -3358675 1085069643 1085069641#0 1085069641#1 843033243#0 843033242#2 8129915#0 -3871577#3 -3871577#0 -284664272#5 -284664272#1 -284664268 -438252643#2 125835563#0 -13865507#2 292233691#0 -126304963#1 3992583#0 126348346#0 126348346#3 126348346#6 125835549#0 125835549#2 125835549#3 125835569 -608715546 3991635#0"/>
    </vehicle>
    <vehicle id="c33.0" type="type1" depart="0.00" departLane="random">
        <route edges="-1084279279#21 11064172#0 11064172#7 11064172#10 10575877#0 90634062#0 90634062#1 344507809 344507803#0 344507803#1 344507798#0 344507786#3 205829433 19787336-AddedOnRampEdge 19787336 192689379 192689382#0 339533466#0 80342115 -92326679#1 -79940705#9 -79940705#6 -608916230 -80341408#2 -742307327#1 -742307327#0 -742307325 -742307323 -152919736#2 -20681390#1 -17023727 -121562246 -586268886#0 -608715536#2 -608715536#0 863272997 4003927#2 4003927#5 19793254 4884714#0 254811217#0 85044941 263138306 61540068 254801390 340265962 949615544#0 98825484 304241967 304241968 29283599#0 510790348 314635787#0 314635787#1 314635787#2 -126415113#1 -99500153#2 -99500158 -3992549#5 -3992549#3 126348346#0 126348346#3 126348346#6 125835549#0 125835549#2 125835549#3 125835569 -608715546 3991635#0"/>
    </vehicle>
    <vehicle id="c34.0" type="type1" depart="0.00" departLane="random">
        <route edges="608754692#5 11094143#0 11094212#0 11094212#1 -688347311#3 -688347311#2 -23889534#5 -23889534#4 -23889534#3 -23889534#0 -1201659269 116692563 -521257409#4 -521257409#1 -24905455#6 -24905455#4 -24905455#0 -608715553#4 -608715553#3 -61596289#0 -23707243#2 -23707243#1 -23707244 125835524#0 61556877#0 584356749 584356742 451873774#0 -116797180 4884707 19793164 80458208 -89574079 1115244401 305434579#0 305434579#7 578662094#1 3991636#0 174985125 3991635#0"/>
    </vehicle>
    <vehicle id="c35.0" type="type1" depart="0.00" departLane="random">
        <route edges="-126304916 126304916 -126304967#6 -126304967#4 -126304967#1 -61596289#0 -23707243#2 -23707243#1 -23707244 125835524#0 61556877#0 584356749 584356742 451873774#0 -116797180 4884707 19793164 80458208 -89574079 1115244401 305434579#0 305434579#7 578662094#1 3991636#0 174985125 3991635#0"/>
    </vehicle>
    <vehicle id="c36.0" type="type1" depart="0.00" departLane="random">
        <route edges="-608818920#2 239932051#0 107068083#0 107068083#4 98807520 -23041938#1 -192559611#7 -192559613#0 622063652#0 305316103 568941304 338057819 425777009#0 3992548#0 254800931 8133608#0 -316395269#4 -25983368#7 -25983368#4 -25983368#1 -26085017#6 -26085017#2 -456815187#1 14971387#0 -8055845#0 578662094#1 3991636#0 174985125 3991635#0"/>
    </vehicle>
    <vehicle id="c37.0" type="type1" depart="0.00" departLane="random">
        <route edges="112917227#0 23707241 25155107#0 10657957#0 -126304956#8 -126304956#5 -126304956#2 -1010515587#1 -25155106#2 128494230 -126304967#6 -126304967#4 -126304967#1 -61596289#0 -23707243#2 -23707243#1 -23707244 125835524#0 61556877#0 584356749 584356742 451873774#0 -116797180 4884707 19793164 80458208 -89574079 1115244401 305434579#0 305434579#7 578662094#1 3991636#0 174985125 3991635#0"/>
    </vehicle>
    <vehicle id="c38.0" type="type1" depart="0.00" departLane="random">
        <route edges="-662329847 -662329851#0 3351203#1 3351205 3351197 725072194#1 3351198 -608715532#1 -342997240 -3991778 3991775#0 199381120 24905254 24905255#0 24905256#0 24905256#2 857806575 857806576 8130905#0 4003928 863272997 4003927#2 4003927#5 19793254 4884714#0 254811217#0 85044941 263138306 61540068 254801390 61540098 61540078#0 23691158 254800931 8133608#0 -316395269#4 -25983368#7 -25983368#4 -25983368#1 -26085017#6 -26085017#2 -456815187#1 14971387#0 -8055845#0 578662094#1 3991636#0 174985125 3991635#0"/>
    </vehicle>
    <vehicle id="c39.0" type="type1" depart="0.00" departLane="random">
        <route edges="-662329847 662329846 662329835 -608715566 -439142857#3 3677822#0 608715575#0 608715575#1 120086001#0 120086001#1 120086001#2 120086001#3 120086001#4 120086001#6 120086001#8 120086001#9 3991775#0 199381120 24905254 24905255#0 24905256#0 24905256#2 857806575 857806576 8130905#0 4003928 3991777#0 608715536#1 608715538 586268886#3 17023727 672505868 -499072205#2 -1036486947#1 1036486949#0 485802425#0 -23707242#1 -608715582#1 -608715586#3 -3992546 -10230617 -1217801803#3 -23707243#2 -23707243#1 -23707244 125835524#0 61556877#0 584356749 584356742 451873774#0 -116797180 4884707 19793164 80458208 -89574079 1115244401 305434579#0 305434579#7 8055845#0 -8055845#0 578662094#1 3991636#0 174985125 3991635#0"/>
    </vehicle>
    <vehicle id="c4.0" type="type1" depart="0.00" departLane="random">
        <route edges="85044922#6 3677329 23104390 90168774#2 3677330#0 23237287#0 3677335#0 461159367 461159362#0 461159345 88361317#0 3677944#0 3677944#1 174338458#1 521193380 429706864 813979472 79289746 813979470 249333186 249333185 8131121 8131121-AddedOffRampEdge 225605630 23837544-AddedOnRampEdge 23837544 438252639 125835624#0 507005804 125835610 9812591#0 109267417 3993388 1085888987 254800932#0 23691158 254800931 8133608#0 81457878 6184898#0 19793164 80458208 -89574079 1115244401 305434579#0 305434579#7 578662094#1 3991636#0 174985125 3991635#0"/>
    </vehicle>
    <vehicle id="c40.0" type="type1" depart="0.00" departLane="random">
        <route edges="-126304916 126304916 -126304967#6 -126304967#4 -126304967#1 -61596289#0 -23707243#2 -23707243#1 -23707244 125835524#0 61556877#0 584356749 584356742 451873774#0 -116797180 4884707 19793164 80458208 -89574079 1115244401 305434579#0 305434579#7 578662094#1 3991636#0 174985125 3991635#0"/>
    </vehicle>
    <vehicle id="c41.0" type="type1" depart="0.00" departLane="random">
        <route edges="-662329847 -662329851#0 3351203#1 3351203#3 3351204#0 725072192 3351198 -608715532#1 -342997240 -3991778 3991775#0 199381120 24905254 24905255#0 24905256#0 24905256#2 857806575 857806576 8130905#0 4003928 863272997 4003927#2 4003927#5 19793254 4884714#0 254811217#0 85044941 263138306 61540068 254801390 340265962 949615544#0 98825484 304241967 304241968 29283599#0 510790348 314635787#0 314635787#1 314635787#2 -126415113#1 -99500153#2 -99500158 -3992549#5 -3992549#3 126348346#0 126348346#3 126348346#6 125835549#0 125835549#2 125835549#3 125835569 -608715546 3991635#0"/>
    </vehicle>
    <vehicle id="c42.0" type="type1" depart="0.00" departLane="random">
        <route edges="-37713149#1 -1155226687 -377918607 -351000218#2 4004855#0 345381453 345381481#0 949701271-AddedOnRampEdge 949701271 345381442 13884500 4884478 345592227 4858224 292472285 79501549 292472305 949703711 139807120#0 192559621 292472310#0 292472297 292472294 148252690#0 148252706 125835610 9812591#0 109267417 3993388 1085888987 254800932#0 23691158 254800931 8133608#0 -316395269#4 -25983368#7 -25983368#4 -25983368#1 -26085017#6 -26085017#2 -456815187#1 14971387#0 -8055845#0 578662094#1 3991636#0 174985125 3991635#0"/>
    </vehicle>
    <vehicle id="c43.0" type="type1" depart="0.00" departLane="random">
        <route edges="81457871#0 25983371#0 25813260#0 -26085017#6 -26085017#2 -456815187#1 14971387#0 -8055845#0 578662094#1 3991636#0 174985125 3991635#0"/>
    </vehicle>
    <vehicle id="c44.0" type="type1" depart="0.00" departLane="random">
        <route edges="85044922#6 3677329 90168774#1 90168774#2 3677822#0 608715575#0 608715575#1 120086001#0 120086001#1 120086001#2 120086001#3 120086001#4 120086001#6 120086001#8 120086001#9 3991775#0 199381120 24905254 24905255#0 24905256#0 24905256#2 857806575 857806576 8130905#0 4003928 863272997 4003927#2 4003927#5 19793254 4884714#0 254811217#0 85044941 263138306 61540068 254801390 340265962 949615544#0 98825484 304241967 304241968 29283599#0 510790348 314635787#0 314635787#1 314635787#2 -126415113#1 -99500153#2 -99500158 -3992549#5 -3992549#3 126348346#0 126348346#3 126348346#6 125835549#0 125835549#2 125835549#3 125835569 -608715546 3991635#0"/>
    </vehicle>
    <vehicle id="c45.0" type="type1" depart="0.00" departLane="random">
        <route edges="688600643#0 126348346#0 126348346#3 126348346#6 125835549#0 3991683#0 125835549#3 125835569 -608715546 3991635#0"/>
    </vehicle>
    <vehicle id="c46.0" type="type1" depart="0.00" departLane="random">
        <route edges="3677822#0 608715575#0 608715575#1 120086001#0 120086001#1 120086001#2 120086001#3 120086001#4 120086001#6 120086001#8 120086001#9 3991775#0 199381120 24905254 24905255#0 24905256#0 24905256#2 857806575 857806576 8130905#0 4003928 863272997 4003927#2 4003927#5 19793254 4884714#0 104341004#0 12714939 320591282#0 61556877#0 584356749 584356742 451873774#0 -116797180 4884707 19793164 80458208 -89574079 1115244401 305434579#0 305434579#7 578662094#1 3991636#0 174985125 3991635#0"/>
    </vehicle>
    <vehicle id="c47.0" type="type1" depart="0.00" departLane="random">
        <route edges="3343973#0 8127646 -608715532#1 -342997240 -3991778 3991775#0 199381120 24905254 24905255#0 24905256#0 24905256#2 857806575 857806576 8130905#0 4003928 863272997 4003927#2 4003927#5 19793254 4884714#0 254811217#0 85044941 263138306 61540068 254801390 61540098 61540078#0 23691158 254800931 8133608#0 -316395269#4 -25983368#7 -25983368#4 -25983368#1 -26085017#6 -26085017#2 -456815187#1 14971387#0 -8055845#0 578662094#1 3991636#0 174985125 3991635#0"/>
    </vehicle>
    <vehicle id="c48.0" type="type1" depart="0.00" departLane="random">
        <route edges="125472523 -8302412#0 3390203 125472517#0 3450250 3390201 27022062#0 -27062245#4 27062244#0 461159369#3 461159369#5 8127969#0 8127969#1 8127969#2 -3358673 61557498#0 61557498#1 61557498#2 3752560 -3358675 1085069643 1085069641#0 1085069641#1 843033243#0 843033242#2 8129915#0 -3871577#3 -3871577#0 -284664272#5 -284664272#1 -284664268 -438252643#2 125835563#0 -13865507#2 292233691#0 -126304963#1 3992583#0 126348346#0 126348346#3 126348346#6 125835549#0 3991683#0 125835549#3 125835569 -608715546 3991635#0"/>
    </vehicle>
    <vehicle id="c49.0" type="type1" depart="0.00" departLane="random">
        <route edges="26410313#0 -25933419#5 -25933419#2 -25933419#1 -26410169#4 -26410169#1 -3876847#2 -3876847#1 -125835570 -294365637 -3871574#3 -293787287#6 -293787287#2 -8412180#2 -99500130#2 844373391#0 10269420#0 99500129 -3992549#5 -3992549#3 126348346#0 126348346#3 126348346#6 125835549#0 3991683#0 125835549#3 125835569 -608715546 3991635#0"/>
    </vehicle>
    <vehicle id="c5.0" type="type1" depart="0.00" departLane="random">
        <route edges="24905254 24905255#0 24905256#0 24905256#2 857806575 857806576 8130905#0 4003928 863272997 4003927#2 4003927#5 19793254 4884714#0 104341004#0 12714939 320591282#0 61556877#0 584356749 584356742 451873774#0 -116797180 4884707 19793164 80458208 -89574079 1115244401 305434579#0 305434579#7 578662094#1 3991636#0 174985125 3991635#0"/>
    </vehicle>
    <vehicle id="c50.0" type="type1" depart="0.00" departLane="random">
        <route edges="3343970#6 3343970#0 3343970#2 3343970#4 -3343969#5 -3343969#3 -3343969#1 1063831486#1 1063831514 1063831513 4003927#5 19793254 4884714#0 104341004#0 12714939 320591282#0 61556877#0 584356749 584356742 451873774#0 -116797180 4884707 19793164 80458208 -89574079 1115244401 305434579#0 305434579#7 578662094#1 3991636#0 174985125 3991635#0"/>
    </vehicle>
    <vehicle id="c51.0" type="type1" depart="0.00" departLane="random">
        <route edges="25813260#0 -26085017#6 -26085017#2 -456815187#1 14971387#0 -8055845#0 578662094#1 3991636#0 174985125 3991635#0"/>
    </vehicle>
    <vehicle id="c52.0" type="type1" depart="0.00" departLane="random">
        <route edges="78627821 813970230 249333187 249333181#0 249333181#3 -189453001 189453002 79289753#0 -539611483#2 3752553#12 -3358675 1085069643 1085069641#0 1085069641#1 843033243#0 843033242#2 8129915#0 8129915#5 8129915#9 -148251239#1 -60966477#4 -60966478#1 -8412180#2 -99500130#2 844373391#0 10269420#0 99500129 -3992549#5 -3992549#3 126348346#0 126348346#3 126348346#6 125835549#0 125835549#2 125835549#3 125835569 -608715546 3991635#0"/>
    </vehicle>
    <vehicle id="c53.0" type="type1" depart="0.00" departLane="random">
        <route edges="78627821 813970230 249333187 249333181#0 249333181#3 -189453001 189453002 79289753#0 189453003#1 189453003#2 189453003#3 -961131597#2 -961131597#0 -3358675 1085069643 1085069641#0 1085069641#1 843033243#0 843033242#2 8129915#0 -3871577#3 -3871577#0 -147856945#12 147856945#10 -284664272#5 -284664272#1 -284664268 -438252643#2 125835563#0 -13865507#2 292233691#0 -126304963#1 3992583#0 126348346#0 126348346#3 126348346#6 125835549#0 3991683#0 125835549#3 125835569 -608715546 3991635#0"/>
    </vehicle>
    <vehicle id="c54.0" type="type1" depart="0.00" departLane="random">