<?xml version="1.0" encoding="UTF-8"?>

<!-- generated on 2024-01-27 10:29:32 by Eclipse SUMO duarouter Version 1.19.0
<configuration xmlns:xsi="http://www.w3.org/2001/XMLSchema-instance" xsi:noNamespaceSchemaLocation="http://sumo.dlr.de/xsd/duarouterConfiguration.xsd">

    <input>
        <net-file value="Sumo/osm.net.xml"/>
        <route-files value="Sumo/proportional_traffic_demand.xml"/>
    </input>

    <output>
        <output-file value="Sumo/proportional_traffic_demand.rou.xml"/>
    </output>

    <processing>
        <repair value="true"/>
        <weights.random-factor value="25"/>
    </processing>

</configuration>
-->

<routes xmlns:xsi="http://www.w3.org/2001/XMLSchema-instance" xsi:noNamespaceSchemaLocation="http://sumo.dlr.de/xsd/routes_file.xsd">
    <vType id="type1" length="5.00" maxSpeed="70.00" accel="2.6" decel="4.5" sigma="0.5"/>
    <vehicle id="c1.0" type="type1" depart="0.00" departLane="random">
        <route edges="112917249 79801761 61596758 -112917248 -192706265#1 15081945#1 -14359727#7 -14359727#0 11094212#0 11094212#1 -688347311#3 -688347311#2 -23889534#5 -23889534#4 -23889534#3 -23889534#0 -1201659269 116692563 -521257409#4 -521257409#1 -24905455#6 -24905455#4 -24905455#0 -608715553#4 -608715553#3 -61596289#0 -23707243#2 -23707243#1 -23707244 125835524#0 61556877#0 584356749 584356742 451873774#0 -116797180 4884707 19793164 80458208 -89574079 1115244401 305434579#0 305434579#7 578662094#1 3991636#0 174985125 3991635#0"/>
    </vehicle>
    <vehicle id="c10.0" type="type1" depart="0.00" departLane="random">
        <route edges="125472523 125472524 125472518 13060490#0 843033252#0 228638295#1 198882511#0 446474263#0 446474263#2 13523027#0 898173885#1 13523066#0 1056637435 1056637435-AddedOffRampEdge 586268890#0 863272998 863272997 4003927#2 4003927#5 19793254 4884714#0 104341004#0 12714939 320591282#0 61556877#0 584356749 584356742 451873774#0 -116797180 4884707 19793164 80458208 -89574079 1115244401 305434579#0 305434579#7 578662094#1 3991636#0 174985125 3991635#0"/>
    </vehicle>
    <vehicle id="c11.0" type="type1" depart="0.00" departLane="random">
        <route edges="-302138410#0 -17023822#4 -17023822#1 24905256#2 857806575 857806576 8130905#0 4003928 863272997 4003927#2 4003927#5 19793254 4884714#0 104341004#0 12714939 320591282#0 61556877#0 584356749 584356742 451873774#0 -116797180 4884707 19793164 80458208 -89574079 1115244401 305434579#0 305434579#7 578662094#1 3991636#0 174985125 3991635#0"/>
    </vehicle>
    <vehicle id="c12.0" type="type1" depart="0.00" departLane="random">
        <route edges="301992138#1 126197751#0 -126197750#2 40017749#2 40017749#15 95571483#0 95571482#0 120086001#8 120086001#9 3991775#0 199381120 24905254 24905255#0 24905256#0 24905256#2 857806575 857806576 8130905#0 4003928 863272997 4003927#2 4003927#5 19793254 4884714#0 254811217#0 85044941 263138306 61540068 254801390 61540098 61540078#0 23691158 254800931 8133608#0 -316395269#4 -25983368#7 -25983368#4 -25983368#1 -26085017#6 -26085017#2 -456815187#1 14971387#0 -8055845#0 578662094#1 3991636#0 174985125 3991635#0"/>
    </vehicle>
    <vehicle id="c13.0" type="type1" depart="0.00" departLane="random">
        <route edges="26410313#0 25933419#6 -17414466#8 -17414466#7 -17414466#6 -17414466#5 -17414466#4 -17414466#2 -17414466#1 -17414466#0 -430047989#1 -125835570 -294365637 -3871574#3 -293787287#6 -293787287#2 -8412180#2 -99500130#2 844373391#0 10269420#0 99500129 -3992549#5 -3992549#3 126348346#0 126348346#3 126348346#6 125835549#0 125835549#2 125835549#3 125835569 -608715546 3991635#0"/>
    </vehicle>
    <vehicle id="c14.0" type="type1" depart="0.00" departLane="random">
        <route edges="-608715603 79366164 79366167 79366165 125835500 35633068#0 429571921 -125835568#1 -23707244 125835524#0 61556877#0 584356749 584356742 451873774#0 -116797180 4884707 19793164 80458208 -89574079 1115244401 305434579#0 26085018#0 14971387#0 -8055845#0 578662094#1 3991636#0 174985125 3991635#0"/>
    </vehicle>
    <vehicle id="c15.0" type="type1" depart="0.00" departLane="random">
        <route edges="-662329847 662329846 662329840 3343974#1 725072198 -94391250 8127648#0 86164005#0 86164005#1 3677822#0 608715575#0 608715575#1 120086001#0 120086001#1 120086001#2 120086001#3 120086001#4 120086001#6 120086001#8 120086001#9 3991775#0 199381120 24905254 24905255#0 24905256#0 24905256#2 857806575 857806576 8130905#0 4003928 863272997 4003927#2 4003927#5 19793254 4884714#0 254811217#0 85044941 263138306 61540068 254801390 61540098 61540078#0 23691158 254800931 8133608#0 -316395269#4 -25983368#7 -25983368#4 -25983368#1 -26085017#6 -26085017#2 -456815187#1 14971387#0 -8055845#0 578662094#1 3991636#0 174985125 3991635#0"/>
    </vehicle>
    <vehicle id="c16.0" type="type1" depart="0.00" departLane="random">
        <route edges="126679459#0 10155837#2 3869830#2 8127969#2 -3358673 -578662071 -123929615#1 -961131597#2 -961131597#0 -3358675 1085069643 1085069641#0 1085069641#1 843033243#0 843033242#2 8129915#0 -3871577#3 -3871577#0 -284664272#5 -284664272#1 -284664268 -438252643#2 125835563#0 -13865507#2 292233691#0 -126304963#1 3992583#0 126348346#0 126348346#3 126348346#6 125835549#0 125835549#2 125835549#3 125835569 -608715546 3991635#0"/>
    </vehicle>
    <vehicle id="c17.0" type="type1" depart="0.00" departLane="random">
        <route edges="688600643#0 126348346#0 126348346#3 126348346#6 125835549#0 125835549#2 125835549#3 125835569 -608715546 3991635#0"/>
    </vehicle>
    <vehicle id="c18.0" type="type1" depart="0.00" departLane="random">
        <route edges="-608715603 79366164 79366167 79366165 125835500 35633068#0 429571921 -125835568#1 -23707244 125835524#0 61556877#0 584356749 584356742 451873774#0 -116797180 4884707 19793164 80458208 -89574079 1115244401 305434579#0 305434579#7 578662094#1 3991636#0 174985125 3991635#0"/>
    </vehicle>
    <vehicle id="c19.0" type="type1" depart="0.00" departLane="random">
        <route edges="430047989#6 139807118 139807119 292472289 40404013 292472283 4858224 292472285 79501549 292472305 949703711 139807120#0 192559621 292472310#0 292472297 292472294 148252690#0 148252706 148252702#0 608715517 -304584473 -608715514 -1044729460#3 -1044729460#0 -3871577#3 -3871577#0 -284664272#5 -284664272#1 8412197#0 8412197#5 8412197#11 126409539 -99500130#2 844373391#0 10269420#0 99500129 -3992549#5 -3992549#3 126348346#0 126348346#3 126348346#6 125835549#0 125835549#2 125835549#3 125835569 -608715546 3991635#0"/>
    </vehicle>
    <vehicle id="c20.0" type="type1" depart="0.00" departLane="random">
        <route edges="688600643#0 126348346#0 126348346#3 126348346#6 125835549#0 3991683#0 125835549#3 125835569 -608715546 3991635#0"/>
    </vehicle>
    <vehicle id="c21.0" type="type1" depart="0.00" departLane="random">
        <route edges="430047989#6 -430047989#8 -430047989#5 -430047989#3 -430047989#2 -430047989#1 -125835570 -294365637 -3871574#3 -293787287#6 -293787287#2 -8412180#2 -99500130#2 844373391#0 10269420#0 99500129 -3992549#5 -3992549#3 126348346#0 126348346#3 126348346#6 125835549#0 3991683#0 125835549#3 125835569 -608715546 3991635#0"/>
    </vehicle>
    <vehicle id="c22.0" type="type1" depart="0.00" departLane="random">
        <route edges="-608715603 79366164 79366167 79366165 125835500 35633068#0 429571921 -125835568#1 -23707244 125835524#0 61556877#0 584356749 584356742 451873774#0 -116797180 4884707 19793164 80458208 -89574079 1115244401 305434579#0 305434579#7 578662094#1 3991636#0 174985125 3991635#0"/>
    </vehicle>
    <vehicle id="c23.0" type="type1" depart="0.00" departLane="random">
        <route edges="-3869812#0 -25928482#1 330300723 -330300723 659297690 1231875369#0 3869812#1 3869812#3 3869812#4 305316104#0 338057819 425777009#0 29283599#0 510790348 314635787#0 314635787#1 314635787#2 -126415113#1 -99500153#2 -99500158 -3992549#5 -3992549#3 126348346#0 126348346#3 126348346#6 125835549#0 125835549#2 125835549#3 125835569 -608715546 3991635#0"/>
    </vehicle>
    <vehicle id="c24.0" type="type1" depart="0.00" departLane="random">
        <route edges="112917227#0 23707241 25155107#0 10657957#0 10657957#9 31058502#0 -87304285#1 -31092162#2 -31058514#1 -31058274#0 -23889529#0 -23889534#0 -1201659269 116692563 -521257409#4 -521257409#1 -24905455#6 -24905455#4 -24905455#0 -608715553#4 -608715553#3 -61596289#0 -23707243#2 -23707243#1 -23707244 125835524#0 61556877#0 584356749 584356742 451873774#0 -116797180 4884707 19793164 80458208 -89574079 1115244401 305434579#0 305434579#7 8055845#0 -8055845#0 578662094#1 3991636#0 174985125 3991635#0"/>
    </vehicle>
    <vehicle id="c25.0" type="type1" depart="0.00" departLane="random">
        <route edges="688600643#0 126348346#0 126348346#3 126348346#6 125835549#0 125835549#2 125835549#3 125835569 -608715546 3991635#0"/>
    </vehicle>
    <vehicle id="c26.0" type="type1" depart="0.00" departLane="random">
        <route edges="430047989#6 139807118 139807119 292472289 40404013 292472283 4858224 292472285 79501549 292472305 949703711 139807120#0 192559621 292472310#0 292472297 292472294 148252690#0 148252706 125835610 9812591#0 109267417 3993388 1085888987 254800932#0 23691158 254800931 8133608#0 -316395269#4 -25983368#7 -25983368#4 -25983368#1 -26085017#6 -26085017#2 -456815187#1 14971387#0 -8055845#0 578662094#1 3991636#0 174985125 3991635#0"/>
    </vehicle>
    <vehicle id="c28.0" type="type1" depart="0.00" departLane="random">
        <route edges="8127688#0 -8127688#1 3358662#2 -23119710 120086152 3358661 -120086151#1 -578662085 -301552215 956394197#0 -301552213#2 -85799069#1 -301552211#1 -301552210#2 174886300 120125393#3 578662068 174886292 174886289 3328222#0 3677330#0 23237287#0 3677332 1055164587 55067673 3677944#0 3677944#1 174338458#1 521193380 429706864 813979472 79289746 813979470 249333186 249333185 8131121 8131121-AddedOffRampEdge 225605630 23837544-AddedOnRampEdge 23837544 438252639 125835624#0 507005804 148252702#0 608715517 -304584473 -608715514 -1044729460#3 -1044729460#0 -3871577#3 -3871577#0 -284664272#5 -284664272#1 -284664268 -438252643#2 125835563#0 -13865507#2 292233691#0 -126304963#1 3992583#0 126348346#0 126348346#3 126348346#6 125835549#0 125835549#2 125835549#3 125835569 -608715546 3991635#0"/>
    </vehicle>
    <vehicle id="c31.0" type="type1" depart="0.00" departLane="random">
        <route edges="430047989#6 -430047989#8 -430047989#5 -430047989#3 -430047989#2 -430047989#1 -125835570 -294365637 -3871574#3 -293787287#6 -293787287#2 -8412180#2 -99500130#2 844373391#0 10269420#0 99500129 -3992549#5 -3992549#3 126348346#0 126348346#3 126348346#6 125835549#0 125835549#2 125835549#3 125835569 -608715546 3991635#0"/>
    </vehicle>
    <vehicle id="c32.0" type="type1" depart="0.00" departLane="random">
        <route edges="4061636#0 192659011 461159358 192659022#0 -16771608#0 8128111#0 16771609 1047365121#0 3390192 461159345 88361317#0 3677944#0 3677944#1 174338458#1 521193380 429706864 813979472 79289746 813979470 249333186 249333185 8131121 8131121-AddedOffRampEdge 225605630 23837544-AddedOnRampEdge 23837544 146171871 3877105 8131125 3993387 109267417 3993388 1085888987 254800932#0 23691158 254800931 8133608#0 81457878 6184898#0 19793164 80458208 -89574079 1115244401 305434579#0 305434579#7 578662094#1 3991636#0 174985125 3991635#0"/>
    </vehicle>
    <vehicle id="c33.0" type="type1" depart="0.00" departLane="random">
        <route edges="430047989#6 -430047989#8 -430047989#5 -430047989#3 -430047989#2 -430047989#1 -125835570 -294365637 -3871574#3 -293787287#6 -293787287#2 -8412180#2 -99500130#2 844373391#0 10269420#0 99500129 -3992549#5 -3992549#3 126348346#0 126348346#3 126348346#6 125835549#0 125835549#2 125835549#3 125835569 -608715546 3991635#0"/>
    </vehicle>
    <vehicle id="c35.0" type="type1" depart="0.00" departLane="random">
        <route edges="-662329847 -662329851#0 3351203#1 3351203#3 3351203#6 79002190#0 3343976#0 3343957#0 -71745448 566326280 898173885#1 13523066#0 1056637435 1056637435-AddedOffRampEdge 586268890#0 863272998 8590413#0 4003927#2 4003927#5 19793254 4884714#0 254811217#0 85044941 263138306 61540068 254801390 61540098 61540078#0 23691158 254800931 8133608#0 81457878 6184898#0 19793164 80458208 -89574079 1115244401 305434579#0 305434579#7 578662094#1 3991636#0 174985125 3991635#0"/>
    </vehicle>
    <vehicle id="c36.0" type="type1" depart="0.00" departLane="random">
        <route edges="112917227#0 23707241 25155107#0 61596558#0 126304939#0 -1010515587#1 -25155106#2 128494230 -126304967#6 -126304967#4 -126304967#1 -61596289#0 -23707243#2 -23707243#1 -23707244 125835524#0 61556877#0 584356749 584356742 451873774#0 -116797180 4884707 19793164 80458208 -89574079 1115244401 305434579#0 26085018#0 14971387#0 -8055845#0 578662094#1 3991636#0 174985125 3991635#0"/>
    </vehicle>
    <vehicle id="c37.0" type="type1" depart="0.00" departLane="random">
        <route edges="-124190277#3 -124190277#2 510790348 314635787#0 314635787#1 314635787#2 -126415113#1 -99500153#2 -99500158 -3992549#5 -3992549#3 126348346#0 126348346#3 126348346#6 125835549#0 125835549#2 125835549#3 125835569 -608715546 3991635#0"/>
    </vehicle>
    <vehicle id="c38.0" type="type1" depart="0.00" departLane="random">
        <route edges="-25933423#4 -25806802 3876851#0 3876851#1 3876851#3 622063652#0 305316103 568941304 338057819 425777009#0 29283599#0 510790348 314635787#0 314635787#1 314635787#2 -126415113#1 -99500153#2 -99500158 -3992549#5 -3992549#3 126348346#0 126348346#3 126348346#6 125835549#0 3991683#0 125835549#3 125835569 -608715546 3991635#0"/>
    </vehicle>
    <vehicle id="c39.0" type="type1" depart="0.00" departLane="random">
        <route edges="26410313#0 -25933419#5 -25933419#2 -25933419#1 25933421#0 25933421#2 10155462#4 10155462#1 -25933426#1 3876851#3 622063652#0 305316103 568941304 338057819 425777009#0 3992548#0 254800931 8133608#0 -316395269#4 -25983368#7 -25983368#4 -25983368#1 -26085017#6 -26085017#2 -456815187#1 14971387#0 -8055845#0 578662094#1 3991636#0 174985125 3991635#0"/>
    </vehicle>
    <vehicle id="c4.0" type="type1" depart="0.00" departLane="random">
        <route edges="-3752553#7 3752553#6 3752553#8 3752553#10 3752553#12 -3358675 1085069643 1085069641#0 1085069641#1 843033243#0 843033242#2 23349994#0 147856945#10 -284664272#5 -284664272#1 -284664268 -438252643#2 125835563#0 -13865507#2 292233691#0 -126304963#1 3992583#0 126348346#0 126348347#0 126348337#0 126348346#6 125835549#0 125835549#2 125835549#3 125835569 -608715546 3991635#0"/>
    </vehicle>
    <vehicle id="c42.0" type="type1" depart="0.00" departLane="random">
        <route edges="430047989#6 139807118 139807119 292472289 40404013 292472283 4858224 292472285 79501549 292472305 949703711 139807120#0 192559621 292472310#0 292472297 292472294 148252690#0 148252706 125835610 9812591#0 109267417 3993388 1085888987 254800932#0 23691158 254800931 8133608#0 81457878 6184898#0 19793164 80458208 -89574079 1115244401 305434579#0 305434579#7 578662094#1 3991636#0 174985125 3991635#0"/>
    </vehicle>
    <vehicle id="c43.0" type="type1" depart="0.00" departLane="random">
        <route edges="-608715603 79366164 79366167 79366165 125835500 35633068#0 429571921 -125835568#1 -23707244 125835524#0 61556877#0 584356749 584356742 451873774#0 -116797180 4884707 19793164 80458208 -89574079 1115244401 305434579#0 305434579#7 578662094#1 3991636#0 174985125 3991635#0"/>
    </vehicle>
    <vehicle id="c44.0" type="type1" depart="0.00" departLane="random">
        <route edges="430047989#6 -430047989#8 -430047989#5 -430047989#3 -430047989#2 -430047989#1 -125835570 -294365637 -3871574#3 -293787287#6 -293787287#2 -8412180#2 -99500130#2 844373391#0 10269420#0 99500129 -3992549#5 -3992549#3 126348346#0 126348346#3 126348346#6 125835549#0 125835549#2 125835549#3 125835569 -608715546 3991635#0"/>
    </vehicle>
    <vehicle id="c45.0" type="type1" depart="0.00" departLane="random">
        <route edges="8127688#0 -8127688#1 3358662#2 -23119710 120086152 3358661 -120086151#1 -578662085 -301552215 956394197#0 -301552213#2 -85799069#1 -301552211#1 -301552210#2 174886300 120125393#3 578662068 174886292 174886289 3328222#0 3677822#0 608715575#0 608715575#1 120086001#0 120086001#1 120086001#2 120086001#3 120086001#4 120086001#6 120086001#8 120086001#9 3991775#0 199381120 24905254 24905255#0 24905256#0 24905256#2 857806575 857806576 8130905#0 4003928 3991777#0 608715536#1 608715538 586268886#3 17023727 672505868 -499072205#2 -1036486947#1 1036486949#0 485802425#0 -23707242#1 -608715582#1 -608715586#3 -3992546 794686348 10231010#0 -23707244 125835524#0 61556877#0 584356749 584356742 451873774#0 -116797180 4884707 19793164 80458208 -89574079 1115244401 305434579#0 26085018#0 14971387#0 -8055845#0 578662094#1 3991636#0 174985125 3991635#0"/>
    </vehicle>
    <vehicle id="c46.0" type="type1" depart="0.00" departLane="random">
        <route edges="112917227#0 23707241 12195285 -101619135#12 -101619135#8 -101619135#7 -101619135#6 -101619135#3 -101619135#2 101619136#0 1036486946 16377030#0 1036486949#0 485802425#0 -23707242#1 -608715582#1 -608715586#3 -3992546 -10230617 -1217801803#3 -23707243#2 -23707243#1 -23707244 125835524#0 61556877#0 584356749 584356742 451873774#0 -116797180 4884707 19793164 80458208 -89574079 1115244401 305434579#0 26085018#0 14971387#0 -8055845#0 578662094#1 3991636#0 174985125 3991635#0"/>
    </vehicle>
    <vehicle id="c47.0" type="type1" depart="0.00" departLane="random">
        <route edges="81457871#0 25983371#0 25813260#0 -26085017#6 -26085017#2 -456815187#1 14971387#0 -8055845#0 578662094#1 3991636#0 174985125 3991635#0"/>
    </vehicle>
    <vehicle id="c49.0" type="type1" depart="0.00" departLane="random">
        <route edges="4061636#0 192659011 461159358 192659022#0 -16771608#0 8128111#0 16771609 1047365121#0 3390192 461159345 88361317#0 3677944#0 3677944#1 174338458#1 521193380 429706864 813979472 79289746 813979470 249333186 249333185 8131121 8131121-AddedOffRampEdge 225605630 23837544-AddedOnRampEdge 23837544 438252639 125835624#0 507005804 148252702#0 608715517 -304584473 -608715514 -1044729460#3 -1044729460#0 -3871577#3 -3871577#0 -284664272#5 -284664272#1 -284664268 -438252643#2 125835563#0 -13865507#2 292233691#0 -126304963#1 3992583#0 126348346#0 126348346#3 126348346#6 125835549#0 3991683#0 125835549#3 125835569 -608715546 3991635#0"/>
    </vehicle>
    <vehicle id="c5.0" type="type1" depart="0.00" departLane="random">
        <route edges="-290375126#4 -147856936#3 -60966477#4 -60966478#1 -8412180#2 125835572#0 21550057#3 292233691#0 -126304963#1 3992583#0 126348346#0 126348346#3 126348346#6 125835549#0 125835549#2 125835549#3 125835569 -608715546 3991635#0"/>
    </vehicle>
    <vehicle id="c50.0" type="type1" depart="0.00" departLane="random">
        <route edges="3343954#0 589006899 670002675 898173878 3343975#0 3991663#0 3991663#2 3991663#5 3991661#2 98334250#0 439142856#0 439142856#2 1063831485 1063831486#1 1063831514 1063831513 4003927#5 19793254 4884714#0 254811217#0 85044941 263138306 61540068 254801390 61540098 61540078#0 23691158 254800931 8133608#0 81457878 6184898#0 19793164 80458208 -89574079 1115244401 305434579#0 305434579#7 578662094#1 3991636#0 174985125 3991635#0"/>
    </vehicle>
    <vehicle id="c52.0" type="type1" depart="0.00" departLane="random">
        <route edges="-3869812#0 -25928482#1 330300723 126304912#0 903244729#0 -293787287#6 -293787287#2 -8412180#2 -99500130#2 844373391#0 10269420#0 99500129 -3992549#5 -3992549#3 126348346#0 126348346#3 126348346#6 125835549#0 125835549#2 125835549#3 125835569 -608715546 3991635#0"/>
    </vehicle>
    <vehicle id="c54.0" type="type1" depart="0.00" departLane="random">
        <route edges="-608715603 79366164 79366167 79366165 125835500 35633068#0 429571921 -125835568#1 -23707244 125835524#0 61556877#0 584356749 584356742 451873774#0 -116797180 4884707 19793164 80458208 -89574079 1115244401 305434579#0 305434579#7 578662094#1 3991636#0 174985125 3991635#0"/>
    </vehicle>
    <vehicle id="c56.0" type="type1" depart="0.00" departLane="random">
        <route edges="112917249 79801761 61596758 -112917248 -192706265#1 15081945#1 -14359727#7 -14359727#0 11094212#0 11094212#1 11094212#2 23707213 29586996 -608754699 -608754700 -10672177#2 -10672177#1 -112917228 -1192094894 -10657957#14 -10657957#8 61596558#0 126304939#0 -1010515587#1 -25155106#2 128494230 -126304967#6 -126304967#4 -126304967#1 -61596289#0 -23707243#2 -23707243#1 -23707244 125835524#0 61556877#0 584356749 584356742 451873774#0 -116797180 4884707 19793164 80458208 -89574079 1115244401 305434579#0 305434579#7 578662094#1 3991636#0 174985125 3991635#0"/>
    </vehicle>
    <vehicle id="c57.0" type="type1" depart="0.00" departLane="random">
        <route edges="112917227#0 23707241 25155107#0 61596558#0 126304939#0 -1010515587#1 -25155106#2 128494230 -126304967#6 -126304967#4 -126304967#1 -61596289#0 -23707243#2 -23707243#1 -23707244 125835524#0 61556877#0 584356749 584356742 451873774#0 -116797180 4884707 19793164 80458208 -89574079 1115244401 305434579#0 305434579#7 578662094#1 3991636#0 174985125 3991635#0"/>
    </vehicle>
    <vehicle id="c58.0" type="type1" depart="0.00" departLane="random">
        <route edges="24471498#0 696009881 696004317 27022062#0 -27062245#4 27062244#0 461159369#3 461159369#5 8127969#0 8127969#1 8127969#2 -3358673 61557498#0 86126157#0 86126157#1 683066057#3 683066057#4 683066057#8 1085069641#1 843033243#0 843033242#2 23349994#0 147856945#10 -284664272#5 -284664272#1 8412197#0 8412197#5 8412197#11 126409539 -99500130#2 844373391#0 10269420#0 99500129 -3992549#5 -3992549#3 126348346#0 126348346#3 126348346#6 125835549#0 125835549#2 125835549#3 125835569 -608715546 3991635#0"/>
    </vehicle>
    <vehicle id="c6.0" type="type1" depart="0.00" departLane="random">
        <route edges="8127688#0 -8127688#1 3358662#2 -23119710 120086152 3358661 -120086151#1 -578662085 -301552215 956394197#0 -301552213#2 -85799069#1 -301552211#1 -301552210#2 174886300 120125393#3 578662068 174886292 174886289 3328222#0 3677330#0 23237287#0 3677332 1055164587 55067673 3677944#0 3677944#1 174338458#1 521193380 -578662086 -123929657#1 -961131597#2 -961131597#0 -3358675 1085069643 1085069641#0 1085069641#1 843033243#0 843033242#2 23349994#0 147856945#10 -284664272#5 -284664272#1 8412197#0 8412197#5 8412197#11 126409539 -99500130#2 844373391#0 10269420#0 99500129 -3992549#5 -3992549#3 126348346#0 126348346#3 126348346#6 125835549#0 3991683#0 125835549#3 125835569 -608715546 3991635#0"/>
    </vehicle>
    <vehicle id="c60.0" type="type1" depart="0.00" departLane="random">
        <route edges="3343970#6 3343968 3343975#5 3343975#6 3343975#7 1063831485 1063831486#1 1063831514 1063831513 4003927#5 19793254 4884714#0 104341004#0 12714939 320591282#0 61556877#0 584356749 584356742 451873774#0 -116797180 4884707 19793164 80458208 -89574079 1115244401 305434579#0 26085018#0 14971387#0 -8055845#0 578662094#1 3991636#0 174985125 3991635#0"/>
    </vehicle>
    <vehicle id="c62.0" type="type1" depart="0.00" departLane="random">
        <route edges="-302138410#0 -17023822#4 -17023822#1 24905256#2 857806575 857806576 8130905#0 4003928 863272997 4003927#2 4003927#5 19793254 4884714#0 254811217#0 85044941 263138306 61540068 254801390 61540098 61540078#0 23691158 254800931 8133608#0 -316395269#4 -25983368#7 -25983368#4 -25983368#1 -26085017#6 -26085017#2 -456815187#1 14971387#0 -8055845#0 578662094#1 3991636#0 174985125 3991635#0"/>
    </vehicle>
    <vehicle id="c63.0" type="type1" depart="0.00" departLane="random">
        <route edges="-126304916 126304916 -126304967#6 -126304967#4 -126304967#1 -61596289#0 -23707243#2 -23707243#1 -23707244 125835524#0 61556877#0 584356749 584356742 451873774#0 -116797180 4884707 19793164 80458208 -89574079 1115244401 305434579#0 305434579#7 578662094#1 3991636#0 174985125 3991635#0"/>
    </vehicle>
    <vehicle id="c64.0" type="type1" depart="0.00" departLane="random">
        <route edges="-10362550#1 -440732694 125835557#0 242622344 112566018#0 -80284458#3 -138017385#1 138017383#0 138017383#1 -608715591 -138017384#2 1108252549 1108252548#1 -1126471483 -1126471484 125835500 35633068#0 429571921 -125835568#1 -23707244 125835524#0 61556877#0 584356749 584356742 451873774#0 -116797180 4884707 19793164 80458208 -89574079 1115244401 305434579#0 305434579#7 578662094#1 3991636#0 174985125 3991635#0"/>
    </vehicle>
    <vehicle id="c65.0" type="type1" depart="0.00" departLane="random">
        <route edges="24471498#0 696009881 696004317 27022062#0 -27062245#4 27062244#0 461159369#3 461159369#5 8127969#0 8127969#1 8127969#2 -3358673 61557498#0 61557498#1 15050767 683066057#4 683066057#8 1085069641#1 843033243#0 843033242#2 8129915#0 8129915#5 8129915#9 -148251239#1 -60966477#4 -60966478#1 -8412180#2 -99500130#2 844373391#0 10269420#0 99500129 -3992549#5 -3992549#3 126348346#0 126348347#0 126348337#0 126348346#6 125835549#0 125835549#2 125835549#3 125835569 -608715546 3991635#0"/>
    </vehicle>
    <vehicle id="c66.0" type="type1" depart="0.00" departLane="random">
        <route edges="81457871#0 25983371#0 25813260#0 -26085017#6 -26085017#2 -456815187#1 14971387#0 -8055845#0 578662094#1 3991636#0 174985125 3991635#0"/>
    </vehicle>
    <vehicle id="c67.0" type="type1" depart="0.00" departLane="random">
        <route edges="120086152 3358661 -120086151#1 -578662085 -301552215 956394197#0 -301552213#2 -85799069#1 -301552211#1 -301552210#2 174886300 120125393#3 578662068 174886292 174886289 3328222#0 3677822#0 608715575#0 608715575#1 120086001#0 120086001#1 120086001#2 120086001#3 120086001#4 120086001#6 120086001#8 120086001#9 3991775#0 199381120 24905254 24905255#0 24905256#0 24905256#2 857806575 857806576 8130905#0 4003928 3991777#0 608715536#1 608715538 586268886#3 17023727 672505868 -499072205#2 -1036486947#1 1036486949#0 485802425#0 -23707242#1 -608715582#1 -608715586#3 -3992546 794686348 10231010#0 -23707244 125835524#0 61556877#0 584356749 584356742 451873774#0 -116797180 4884707 19793164 80458208 -89574079 1115244401 305434579#0 305434579#7 578662094#1 3991636#0 174985125 3991635#0"/>
    </vehicle>
    <vehicle id="c68.0" type="type1" depart="0.00" departLane="random">
        <route edges="112917227#0 23707241 25155107#0 61596558#0 126304939#0 -1010515587#1 -25155106#2 128494230 -126304967#6 -126304967#4 -126304967#1 -61596289#0 -23707243#2 -23707243#1 -23707244 125835524#0 4061640#0 61540068 254801390 61540098 61540078#0 23691158 254800931 8133608#0 -316395269#4 -25983368#7 -25983368#4 -25983368#1 -26085017#6 -26085017#2 -456815187#1 14971387#0 -8055845#0 578662094#1 3991636#0 174985125 3991635#0"/>
    </vehicle>
    <vehicle id="c69.0" type="type1" depart="0.00" departLane="random">
        <route edges="4061636#0 192659011 461159358 192659022#0 3424504#0 -3424505#11 -3424505#3 -3424505#2 -521257400#1 -578662086 -123929657#1 -961131597#2 -961131597#0 -3358675 1085069643 1085069641#0 1085069641#1 843033243#0 843033242#2 8129915#0 -3871577#3 -3871577#0 -284664272#5 -284664272#1 -284664268 -438252643#2 125835563#0 -13865507#2 292233691#0 -126304963#1 3992583#0 126348346#0 126348346#3 126348346#6 125835549#0 125835549#2 125835549#3 125835569 -608715546 3991635#0"/>
    </vehicle>
    <vehicle id="c71.0" type="type1" depart="0.00" departLane="random">
        <route edges="3343976#9 13523027#0 898173885#1 13523066#0 1056637435 1056637435-AddedOffRampEdge 586268890#0 863272998 8590413#0 4003927#2 4003927#5 19793254 4884714#0 254811217#0 85044941 263138306 61540068 254801390 340265962 949615544#0 98825484 304241967 304241968 29283599#0 510790348 314635787#0 314635787#1 314635787#2 -126415113#1 -99500153#2 -99500158 -3992549#5 -3992549#3 126348346#0 126348346#3 126348346#6 125835549#0 125835549#2 125835549#3 125835569 -608715546 3991635#0"/>
    </vehicle>
    <vehicle id="c72.0" type="type1" depart="0.00" departLane="random">
        <route edges="-3752553#7 3752553#6 3752553#8 3752553#10 3752553#12 -3358675 1085069643 1085069641#0 1085069641#1 843033243#0 843033242#2 8129915#0 -3871577#3 -3871577#0 -284664272#5 -284664272#1 -284664268 -438252643#2 125835563#0 -13865507#2 292233691#0 -126304963#1 3992583#0 126348346#0 126348346#3 126348346#6 125835549#0 125835549#2 125835549#3 125835569 -608715546 3991635#0"/>
    </vehicle>
    <vehicle id="c74.0" type="type1" depart="0.00" departLane="random">
        <route edges="24471498#0 696009881 696004317 27022062#0 -27062245#4 3390199#0 -3390197#5 -461159351 461159348 88361317#0 3677944#0 3677944#1 174338458#1 521193380 -578662086 -123929657#1 -961131597#2 -961131597#0 -3358675 1085069643 1085069641#0 1085069641#1 843033243#0 843033242#2 8129915#0 -3871577#3 -3871577#0 -284664272#5 -284664272#1 8412197#0 8412197#5 8412197#11 126409539 -99500130#2 844373391#0 10269420#0 99500129 -3992549#5 -3992549#3 126348346#0 126348346#3 126348346#6 125835549#0 125835549#2 125835549#3 125835569 -608715546 3991635#0"/>
    </vehicle>
    <vehicle id="c75.0" type="type1" depart="0.00" departLane="random">
        <route edges="-662329847 -662329851#0 3351203#1 3351203#3 3351204#0 725072192 3351198 -608715532#1 -342997240 -3991778 3991775#0 199381120 24905254 24905255#0 24905256#0 24905256#2 857806575 857806576 8130905#0 4003928 863272997 4003927#2 4003927#5 19793254 4884714#0 104341004#0 12714939 320591282#0 61556877#0 584356749 584356742 451873774#0 -116797180 4884707 19793164 80458208 -89574079 1115244401 305434579#0 305434579#7 578662094#1 3991636#0 174985125 3991635#0"/>
    </vehicle>
    <vehicle id="c76.0" type="type1" depart="0.00" departLane="random">