<?xml version="1.0" encoding="UTF-8"?>

<!-- generated on 2024-01-26 12:24:22 by Eclipse SUMO duarouter Version 1.19.0
<configuration xmlns:xsi="http://www.w3.org/2001/XMLSchema-instance" xsi:noNamespaceSchemaLocation="http://sumo.dlr.de/xsd/duarouterConfiguration.xsd">

    <input>
        <net-file value="Sumo/osm.net.xml"/>
        <route-files value="Sumo/proportional_traffic_demand.xml"/>
    </input>

    <output>
        <output-file value="Sumo/proportional_traffic_demand.rou.xml"/>
    </output>

    <processing>
        <repair value="true"/>
        <weights.random-factor value="25"/>
    </processing>

</configuration>
-->

<routes xmlns:xsi="http://www.w3.org/2001/XMLSchema-instance" xsi:noNamespaceSchemaLocation="http://sumo.dlr.de/xsd/routes_file.xsd">
    <vType id="type1" length="5.00" maxSpeed="70.00" accel="2.6" decel="4.5" sigma="0.5"/>
    <vehicle id="c0.0" type="type1" depart="0.00" departLane="random">
        <route edges="-742307325 -742307323 -152919736#2 -499072205#2 -1036486947#1 1036486949#0 485802425#0 -23707242#1 -608715582#1 -608715586#3 -3992546 -10230617 -1217801803#3 -23707243#2 -23707243#1 -23707244 125835524#0 61556877#0 584356749 584356742 451873774#0 -116797180 4884707 19793164 80458208 -89574079 1115244401 305434579#0 305434579#7 578662094#1 3991636#0 174985125 3991635#0"/>
    </vehicle>
    <vehicle id="c1.0" type="type1" depart="0.00" departLane="random">
        <route edges="-290375126#4 147856936#4 -3871577#0 -284664272#5 -284664272#1 -284664268 -438252643#2 125835563#0 -13865507#2 292233691#0 -126304963#1 3992583#0 126348346#0 126348346#3 126348346#6 125835549#0 3991683#0 125835549#3 125835569 -608715546 3991635#0"/>
    </vehicle>
    <vehicle id="c10.0" type="type1" depart="0.00" departLane="random">
        <route edges="-126304916 126304916 -126304967#6 -126304967#4 -126304967#1 -61596289#0 -23707243#2 -23707243#1 -23707244 125835524#0 61556877#0 584356749 584356742 451873774#0 -116797180 4884707 19793164 80458208 -89574079 1115244401 305434579#0 305434579#7 578662094#1 3991636#0 174985125 3991635#0"/>
    </vehicle>
    <vehicle id="c13.0" type="type1" depart="0.00" departLane="random">
        <route edges="-3731749#2 -3731749#1 -100833387 -608916191#0 -8130000#1 -8130000#0 -120320201#1 3752543 120320205#2 -578662079 -123929644#2 -123929644#0 -813979468 -521257400#1 429706864 813979472 79289746 813979470 249333186 249333185 8131121 8131121-AddedOffRampEdge 225605630 23837544-AddedOnRampEdge 23837544 438252639 125835624#0 507005804 148252702#0 608715517 -304584473 -608715514 -1044729460#3 -1044729460#0 -3871577#3 -3871577#0 -284664272#5 -284664272#1 -284664268 -438252643#2 125835563#0 -13865507#2 292233691#0 -126304963#1 3992583#0 126348346#0 126348346#3 126348346#6 125835549#0 125835549#2 125835549#3 125835569 -608715546 3991635#0"/>
    </vehicle>
    <vehicle id="c15.0" type="type1" depart="0.00" departLane="random">
        <route edges="112917227#0 23707241 25155107#0 61596558#0 126304939#0 -1010515587#1 -25155106#2 128494230 -126304967#6 -126304967#4 -126304967#1 -61596289#0 -23707243#2 -23707243#1 -23707244 125835524#0 61556877#0 584356749 584356742 451873774#0 -116797180 4884707 19793164 80458208 -89574079 1115244401 305434579#0 305434579#7 578662094#1 3991636#0 174985125 3991635#0"/>
    </vehicle>
    <vehicle id="c17.0" type="type1" depart="0.00" departLane="random">
        <route edges="4061636#0 192659011 461159358 192659022#0 -16771608#0 8128111#0 16771609 1047365121#0 3390192 461159346 325166039#2 461159351 461159369#0 461159369#3 461159369#5 8127969#0 8127969#1 8127969#2 -3358673 -578662071 -123929615#1 -961131597#2 -961131597#0 -3358675 1085069643 1085069641#0 1085069641#1 843033243#0 843033242#2 8129915#0 8129915#5 8129915#9 -148251239#1 -60966477#4 -60966478#1 -8412180#2 -99500130#2 844373391#0 10269420#0 99500129 -3992549#5 -3992549#3 126348346#0 126348346#3 126348346#6 125835549#0 3991683#0 125835549#3 125835569 -608715546 3991635#0"/>
    </vehicle>
    <vehicle id="c18.0" type="type1" depart="0.00" departLane="random">
        <route edges="-3731749#2 -3731749#1 -100833387 -608916191#0 -8130000#1 -8130000#0 8129999#0 -130861473#2 -609991297 -578662079 -123929644#2 -123929644#0 -813979468 -521257400#1 -578662086 -123929657#1 -961131597#2 -961131597#0 -3358675 1085069643 1085069641#0 1085069641#1 843033243#0 843033242#2 23349994#0 147856945#10 -284664272#5 -284664272#1 8412197#0 8412197#5 8412197#11 126409539 -99500130#2 844373391#0 10269420#0 99500129 -3992549#5 -3992549#3 126348346#0 126348346#3 126348346#6 125835549#0 3991683#0 125835549#3 125835569 -608715546 3991635#0"/>
    </vehicle>
    <vehicle id="c20.0" type="type1" depart="0.00" departLane="random">
        <route edges="-23157554#3 23157554#0 23157554#4 79002193#0 -105447589#5 105447667 192658996#1 192658996#5 96768814#0 281817948 -79002196#2 85798761 8074632#0 733824370#0 858200640#0 -83869544 20681417#0 17023727 672505868 -499072205#2 -1036486947#1 1036486949#0 485802425#0 -23707242#1 -608715582#1 -608715586#3 -3992546 -10230617 -1217801803#3 -23707243#2 -23707243#1 -23707244 125835524#0 61556877#0 584356749 584356742 451873774#0 -116797180 4884707 19793164 80458208 -89574079 1115244401 305434579#0 305434579#7 578662094#1 3991636#0 174985125 3991635#0"/>
    </vehicle>
    <vehicle id="c21.0" type="type1" depart="0.00" departLane="random">
        <route edges="26410313#0 -25933419#5 -25933419#2 -25933419#1 -26410169#4 -26410169#1 -3876847#2 -3876847#1 -125835570 -294365637 -3871574#3 -293787287#6 -293787287#2 -8412180#2 -99500130#2 844373391#0 10269420#0 99500129 -3992549#5 -3992549#3 126348346#0 126348346#3 126348346#6 125835549#0 3991683#0 125835549#3 125835569 -608715546 3991635#0"/>
    </vehicle>
    <vehicle id="c25.0" type="type1" depart="0.00" departLane="random">
        <route edges="26410313#0 25933419#6 -17414466#8 -17414466#7 -17414466#6 -17414466#5 -17414466#4 -17414466#2 -17414466#1 -17414466#0 -430047989#1 -125835570 -294365637 -3871574#3 -293787287#6 -293787287#2 -8412180#2 -99500130#2 844373391#0 10269420#0 99500129 -3992549#5 -3992549#3 126348346#0 126348346#3 126348346#6 125835549#0 3991683#0 125835549#3 125835569 -608715546 3991635#0"/>
    </vehicle>
    <vehicle id="c26.0" type="type1" depart="0.00" departLane="random">
        <route edges="-3731749#2 -3731749#1 -100833387 -608916191#0 -8130000#1 -8130000#0 8129999#0 -130861473#2 -609991297 -578662079 -123929644#2 -123929644#0 -813979468 -521257400#1 -578662086 -123929657#1 -961131597#2 -961131597#0 -3358675 1085069643 1085069641#0 1085069641#1 843033243#0 843033242#2 23349994#0 147856945#10 -284664272#5 -284664272#1 -284664268 -438252643#2 125835563#0 -13865507#2 292233691#0 -126304963#1 3992583#0 126348346#0 126348346#3 126348346#6 125835549#0 3991683#0 125835549#3 125835569 -608715546 3991635#0"/>
    </vehicle>
    <vehicle id="c28.0" type="type1" depart="0.00" departLane="random">
        <route edges="-37713149#1 -1155226687 -377918607 -351000218#2 440732692#0 345381438#0 -198676304 -198676305#1 311042987 -311042988 -311042986 -340265919 -118943958 -15241582#0 16274573#0 16274573#13 98825476#0 304241967 304241968 29283599#0 510790348 314635787#0 314635787#1 314635787#2 -126415113#1 -99500153#2 -99500158 -3992549#5 -3992549#3 126348346#0 126348346#3 126348346#6 125835549#0 125835549#2 125835549#3 125835569 -608715546 3991635#0"/>
    </vehicle>
    <vehicle id="c30.0" type="type1" depart="0.00" departLane="random">
        <route edges="-608715603 79366164 79366167 79366165 125835500 35633068#0 429571921 -125835568#1 -23707244 125835524#0 61556877#0 584356749 584356742 451873774#0 -116797180 4884707 19793164 80458208 -89574079 1115244401 305434579#0 305434579#7 578662094#1 3991636#0 174985125 3991635#0"/>
    </vehicle>
    <vehicle id="c31.0" type="type1" depart="0.00" departLane="random">
        <route edges="-3869812#0 -25928482#1 330300723 126304912#0 903244729#0 -293787287#6 -293787287#2 -8412180#2 -99500130#2 844373391#0 10269420#0 99500129 -3992549#5 -3992549#3 126348346#0 126348346#3 126348346#6 125835549#0 125835549#2 125835549#3 125835569 -608715546 3991635#0"/>
    </vehicle>
    <vehicle id="c32.0" type="type1" depart="0.00" departLane="random">
        <route edges="-3869812#0 -25928482#1 330300723 126304912#0 903244729#0 -293787287#6 -293787287#2 -8412180#2 -99500130#2 844373391#0 10269420#0 99500129 -3992549#5 -3992549#3 126348346#0 126348346#3 126348346#6 125835549#0 3991683#0 125835549#3 125835569 -608715546 3991635#0"/>
    </vehicle>
    <vehicle id="c33.0" type="type1" depart="0.00" departLane="random">
        <route edges="112917249 79801761 61596758 -112917248 -192706265#1 -10672135#9 -10672135#8 -10672135#5 11094143#0 11094212#0 11094212#1 -688347311#3 -688347311#2 -23889534#5 -23889534#4 -23889534#3 -23889534#0 -1201659269 116692563 -521257409#4 -521257409#1 -24905455#6 -24905455#4 -24905455#0 -608715553#4 -608715553#3 -61596289#0 -23707243#2 -23707243#1 -23707244 125835524#0 61556877#0 584356749 584356742 451873774#0 -116797180 4884707 19793164 80458208 -89574079 1115244401 305434579#0 26085018#0 14971387#0 -8055845#0 578662094#1 3991636#0 174985125 3991635#0"/>
    </vehicle>
    <vehicle id="c34.0" type="type1" depart="0.00" departLane="random">
        <route edges="-302138410#0 -17023822#4 -17023822#1 24905256#2 857806575 857806576 8130905#0 4003928 8590413#0 4003927#2 4003927#5 19793254 4884714#0 254811217#0 85044941 263138306 61540068 254801390 340265962 949615544#0 98825484 304241967 304241968 29283599#0 510790348 314635787#0 314635787#1 314635787#2 -126415113#1 -99500153#2 -99500158 -3992549#5 -3992549#3 126348346#0 126348346#3 126348346#6 125835549#0 3991683#0 125835549#3 125835569 -608715546 3991635#0"/>
    </vehicle>
    <vehicle id="c35.0" type="type1" depart="0.00" departLane="random">
        <route edges="-742307325 -742307323 -152919736#2 -499072205#2 -1036486947#1 1036486949#0 485802425#0 -23707242#1 -608715582#1 -608715586#3 -3992546 794686348 10231010#0 -23707244 125835524#0 61556877#0 584356749 584356742 451873774#0 -116797180 4884707 19793164 80458208 -89574079 1115244401 305434579#0 305434579#7 578662094#1 3991636#0 174985125 3991635#0"/>
    </vehicle>
    <vehicle id="c36.0" type="type1" depart="0.00" departLane="random">
        <route edges="3343976#9 13523027#0 898173885#1 13523066#0 1056637435 1056637435-AddedOffRampEdge 586268890#0 863272998 863272997 4003927#2 4003927#5 19793254 4884714#0 254811217#0 85044941 263138306 61540068 254801390 61540098 61540078#0 23691158 254800931 8133608#0 -316395269#4 -25983368#7 -25983368#4 -25983368#1 -26085017#6 -26085017#2 -456815187#1 14971387#0 -8055845#0 578662094#1 3991636#0 174985125 3991635#0"/>
    </vehicle>
    <vehicle id="c38.0" type="type1" depart="0.00" departLane="random">
        <route edges="688600643#0 126348346#0 126348346#3 126348346#6 125835549#0 125835549#2 125835549#3 125835569 -608715546 3991635#0"/>
    </vehicle>
    <vehicle id="c39.0" type="type1" depart="0.00" departLane="random">
        <route edges="-3752553#7 3752553#6 3752553#8 3752553#10 3752553#12 -3358675 1085069643 1085069641#0 1085069641#1 843033243#0 843033242#2 8129915#0 -3871577#3 -3871577#0 -284664272#5 -284664272#1 -284664268 -438252643#2 125835563#0 -13865507#2 292233691#0 -126304963#1 3992583#0 126348346#0 126348346#3 126348346#6 125835549#0 3991683#0 125835549#3 125835569 -608715546 3991635#0"/>
    </vehicle>
    <vehicle id="c4.0" type="type1" depart="0.00" departLane="random">
        <route edges="-742307325 -742307323 -152919736#2 -499072205#2 -1036486947#1 1036486949#0 485802425#0 -23707242#1 -608715582#1 -608715586#3 -3992546 -10230617 -1217801803#3 -23707243#2 -23707243#1 -23707244 125835524#0 61556877#0 584356749 584356742 451873774#0 -116797180 4884707 19793164 80458208 -89574079 1115244401 305434579#0 305434579#7 578662094#1 3991636#0 174985125 3991635#0"/>
    </vehicle>
    <vehicle id="c40.0" type="type1" depart="0.00" departLane="random">
        <route edges="-3752553#7 3752553#6 3752553#8 3752553#10 3752553#12 -3358675 1085069643 1085069641#0 1085069641#1 843033243#0 843033242#2 8129915#0 -3871577#3 -3871577#0 -147856945#12 147856945#10 -284664272#5 -284664272#1 -284664268 -438252643#2 125835563#0 -13865507#2 292233691#0 -126304963#1 3992583#0 126348346#0 126348346#3 126348346#6 125835549#0 125835549#2 125835549#3 125835569 -608715546 3991635#0"/>
    </vehicle>
    <vehicle id="c42.0" type="type1" depart="0.00" departLane="random">
        <route edges="4061636#0 192659011 461159358 192659022#0 -16771608#0 8128111#0 16771609 1047365121#0 3390192 461159345 88361317#0 3677944#0 3677944#1 174338458#1 521193380 429706864 813979472 79289746 813979470 249333186 249333185 8131121 8131121-AddedOffRampEdge 225605630 23837544-AddedOnRampEdge 23837544 146171871 3877105 8131125 3993387 109267417 3993388 1085888987 254800932#0 23691158 254800931 62268125 263138305#0 44932918#0 12714939 320591282#0 61556877#0 584356749 584356742 451873774#0 -116797180 4884707 19793164 80458208 -89574079 1115244401 305434579#0 305434579#7 578662094#1 3991636#0 174985125 3991635#0"/>
    </vehicle>
    <vehicle id="c44.0" type="type1" depart="0.00" departLane="random">
        <route edges="-126304916 126304916 -126304967#6 -126304967#4 -126304967#1 -61596289#0 -23707243#2 -23707243#1 -23707244 125835524#0 61556877#0 584356749 584356742 451873774#0 -116797180 4884707 19793164 80458208 -89574079 1115244401 305434579#0 305434579#7 578662094#1 3991636#0 174985125 3991635#0"/>
    </vehicle>
    <vehicle id="c45.0" type="type1" depart="0.00" departLane="random">
        <route edges="-25933423#4 -25806802 3876851#0 3876851#1 3876851#3 622063652#0 305316103 568941304 338057819 425777009#0 3992548#0 254800931 8133608#0 -316395269#4 -25983368#7 -25983368#4 -25983368#1 -26085017#6 -26085017#2 -456815187#1 14971387#0 -8055845#0 578662094#1 3991636#0 174985125 3991635#0"/>
    </vehicle>
    <vehicle id="c46.0" type="type1" depart="0.00" departLane="random">
        <route edges="-662329847 -662329851#0 -3351203#0 -608715568#2 -608715568#1 -608715568#0 -608715566 -439142857#3 3677822#0 608715575#0 608715575#1 120086001#0 120086001#1 120086001#2 120086001#3 120086001#4 120086001#6 120086001#8 120086001#9 3991775#0 199381120 24905254 24905255#0 24905256#0 24905256#2 857806575 857806576 8130905#0 4003928 3991777#0 608715536#1 608715538 586268886#3 17023727 672505868 -499072205#2 -1036486947#1 1036486949#0 485802425#0 -23707242#1 -608715582#1 -608715586#3 -3992546 794686348 10231010#0 -23707244 125835524#0 61556877#0 584356749 584356742 451873774#0 -116797180 4884707 19793164 80458208 -89574079 1115244401 305434579#0 305434579#7 578662094#1 3991636#0 174985125 3991635#0"/>
    </vehicle>
    <vehicle id="c48.0" type="type1" depart="0.00" departLane="random">
        <route edges="-662329847 662329846 662329835 -608715566 -439142857#3 3677330#0 23237287#0 3677332 1055164587 55067673 3677944#0 3677944#1 174338458#1 521193380 429706864 813979472 79289746 813979470 249333186 249333185 8131121 8131121-AddedOffRampEdge 225605630 23837544-AddedOnRampEdge 23837544 438252639 125835624#0 507005804 148252702#0 608715517 -304584473 -608715514 -1044729460#3 -1044729460#0 -3871577#3 -3871577#0 -284664272#5 -284664272#1 -284664268 -438252643#2 125835563#0 -13865507#2 292233691#0 -126304963#1 3992583#0 126348346#0 126348346#3 126348346#6 125835549#0 125835549#2 125835549#3 125835569 -608715546 3991635#0"/>
    </vehicle>
    <vehicle id="c49.0" type="type1" depart="0.00" departLane="random">
        <route edges="-662329847 662329846 662329835 -608715566 -439142857#3 3677330#0 23237287#0 3677335#0 461159367 461159362#0 461159345 88361317#0 3677944#0 3677944#1 174338458#1 521193380 -578662086 -123929657#1 -961131597#2 -961131597#0 -3358675 1085069643 1085069641#0 1085069641#1 843033243#0 843033242#2 8129915#0 8129915#5 8129915#9 -148251239#1 -60966477#4 -60966478#1 -8412180#2 -99500130#2 844373391#0 10269420#0 99500129 -3992549#5 -3992549#3 126348346#0 126348346#3 126348346#6 125835549#0 125835549#2 125835549#3 125835569 -608715546 3991635#0"/>
    </vehicle>
    <vehicle id="c50.0" type="type1" depart="0.00" departLane="random">
        <route edges="4061636#0 192659011 461159358 192659022#0 -16771608#0 8128111#0 16771609 1047365121#0 3390192 461159346 325166039#2 461159351 461159369#0 461159369#3 461159369#5 8127969#0 8127969#1 8127969#2 -3358673 61557498#0 86126157#0 86126157#1 683066057#3 683066057#4 683066057#8 1085069641#1 843033243#0 843033242#2 23349994#0 147856945#10 -284664272#5 -284664272#1 8412197#0 8412197#5 8412197#11 126409539 -99500130#2 844373391#0 10269420#0 99500129 -3992549#5 -3992549#3 126348346#0 126348346#3 126348346#6 125835549#0 125835549#2 125835549#3 125835569 -608715546 3991635#0"/>
    </vehicle>
    <vehicle id="c51.0" type="type1" depart="0.00" departLane="random">
        <route edges="-10362550#1 112566010 112566021#0 112566017 112566006 112565996 101388654#0 192559636 101388652 345381455 101388643#0 315666513 345381450 949701269 345381451 440732692#0 345381438#0 -198676304 -198676305#1 118943956 -340265959 -98807522 -22906977 -126304934 98807521#0 98807520 -23041938#1 -192559611#7 -192559613#0 622063652#0 305316103 568941304 338057819 425777009#0 29283599#0 510790348 314635787#0 314635787#1 314635787#2 -126415113#1 -99500153#2 -99500158 -3992549#5 -3992549#3 126348346#0 126348346#3 126348346#6 125835549#0 125835549#2 125835549#3 125835569 -608715546 3991635#0"/>
    </vehicle>
    <vehicle id="c53.0" type="type1" depart="0.00" departLane="random">
        <route edges="-37713149#1 -1155226687 -377918607 -351000218#2 4004855#0 345381453 345381481#0 949701271-AddedOnRampEdge 949701271 345381442 13884500 4884478 345592227 4858224 292472285 79501549 292472305 949703711 139807120#0 192559621 292472310#0 292472297 292472294 148252690#0 148252706 148252702#0 608715517 -304584473 -608715514 -1044729460#3 -1044729460#0 -3871577#3 -3871577#0 -284664272#5 -284664272#1 -284664268 -438252643#2 125835563#0 -13865507#2 292233691#0 -126304963#1 3992583#0 126348346#0 126348346#3 126348346#6 125835549#0 3991683#0 125835549#3 125835569 -608715546 3991635#0"/>
    </vehicle>
    <vehicle id="c54.0" type="type1" depart="0.00" departLane="random">
        <route edges="-126304916 126304916 -126304967#6 -126304967#4 -126304967#1 -61596289#0 -23707243#2 -23707243#1 -23707244 125835524#0 61556877#0 584356749 584356742 451873774#0 -116797180 4884707 19793164 80458208 -89574079 1115244401 305434579#0 26085018#0 14971387#0 -8055845#0 578662094#1 3991636#0 174985125 3991635#0"/>
    </vehicle>
    <vehicle id="c55.0" type="type1" depart="0.00" departLane="random">
        <route edges="688600643#0 126348346#0 126348346#3 126348346#6 125835549#0 125835549#2 125835549#3 125835569 -608715546 3991635#0"/>
    </vehicle>
    <vehicle id="c56.0" type="type1" depart="0.00" departLane="random">
        <route edges="-37713149#1 -1155226687 -377918607 -351000218#2 4004855#0 345381453 345381481#0 949701271-AddedOnRampEdge 949701271 345381442 13884500 4884478 345592227 4858224 292472285 79501549 292472305 949703711 139807120#0 192559621 292472310#0 292472297 292472294 148252690#0 148252706 148252702#0 608715517 -304584473 -608715514 -1044729460#3 -1044729460#0 -3871577#3 -3871577#0 -147856945#12 147856945#10 -284664272#5 -284664272#1 8412197#0 8412197#5 8412197#11 126409539 -99500130#2 844373391#0 10269420#0 99500129 -3992549#5 -3992549#3 126348346#0 126348347#0 126348337#0 126348346#6 125835549#0 3991683#0 125835549#3 125835569 -608715546 3991635#0"/>
    </vehicle>
    <vehicle id="c58.0" type="type1" depart="0.00" departLane="random">
        <route edges="-25933423#4 -25806802 3876851#0 3876851#1 3876851#3 622063652#0 305316103 568941304 338057819 425777009#0 3992548#0 254800931 62268125 263138305#0 44932918#0 12714939 320591282#0 61556877#0 584356749 584356742 451873774#0 -116797180 4884707 19793164 80458208 -89574079 1115244401 305434579#0 305434579#7 578662094#1 3991636#0 174985125 3991635#0"/>
    </vehicle>
    <vehicle id="c59.0" type="type1" depart="0.00" departLane="random">
        <route edges="430047989#6 139807118 139807119 292472289 40404013 292472283 4858224 292472285 79501549 292472305 949703711 139807120#0 192559621 292472310#0 292472297 292472294 148252690#0 148252706 148252702#0 608715517 -304584473 -608715514 -1044729460#3 -1044729460#0 -3871577#3 -3871577#0 -284664272#5 -284664272#1 -284664268 -438252643#2 125835563#0 -13865507#2 292233691#0 -126304963#1 3992583#0 126348346#0 126348346#3 126348346#6 125835549#0 125835549#2 125835549#3 125835569 -608715546 3991635#0"/>
    </vehicle>
    <vehicle id="c60.0" type="type1" depart="0.00" departLane="random">
        <route edges="-662329847 662329846 662329835 -608715566 -439142857#3 3677330#0 23237287#0 3677332 1055164587 55067673 3677944#0 3677944#1 174338458#1 521193380 429706864 813979472 79289746 813979470 249333186 249333185 8131121 8131121-AddedOffRampEdge 225605630 23837544-AddedOnRampEdge 23837544 146171871 3877105 8131125 3993387 109267417 3993388 1085888987 254800932#0 23691158 254800931 8133608#0 -316395269#4 -25983368#7 -25983368#4 -25983368#1 -26085017#6 -26085017#2 -456815187#1 14971387#0 -8055845#0 578662094#1 3991636#0 174985125 3991635#0"/>
    </vehicle>
    <vehicle id="c62.0" type="type1" depart="0.00" departLane="random">
        <route edges="-37713149#1 -1155226687 -377918607 -351000218#2 4004855#0 345381453 345381481#0 949701271-AddedOnRampEdge 949701271 345381442 13884500 4884478 345592227 4858224 292472285 79501549 292472305 949703711 -430047989#8 -430047989#5 -430047989#3 -430047989#2 -430047989#1 -125835570 -294365637 -3871574#3 -293787287#6 -293787287#2 -8412180#2 -99500130#2 844373391#0 10269420#0 99500129 -3992549#5 -3992549#3 126348346#0 126348347#0 126348337#0 126348346#6 125835549#0 125835549#2 125835549#3 125835569 -608715546 3991635#0"/>
    </vehicle>
    <vehicle id="c63.0" type="type1" depart="0.00" departLane="random">
        <route edges="112917227#0 23707241 25155107#0 61596558#0 126304939#0 -1010515587#1 -25155106#2 128494230 -126304967#6 -126304967#4 -126304967#1 -61596289#0 -23707243#2 -23707243#1 -23707244 125835524#0 61556877#0 584356749 584356742 451873774#0 -116797180 4884707 19793164 80458208 -89574079 1115244401 305434579#0 305434579#7 578662094#1 3991636#0 174985125 3991635#0"/>
    </vehicle>
    <vehicle id="c64.0" type="type1" depart="0.00" departLane="random">
        <route edges="-742307325 -742307323 -152919736#2 -20681390#1 -17023727 -121562246 -586268886#0 -608715536#2 -608715536#0 863272997 4003927#2 4003927#5 19793254 4884714#0 254811217#0 85044941 263138306 61540068 254801390 61540098 61540078#0 23691158 254800931 8133608#0 -316395269#4 -25983368#7 -25983368#4 -25983368#1 -26085017#6 -26085017#2 -456815187#1 14971387#0 -8055845#0 578662094#1 3991636#0 174985125 3991635#0"/>
    </vehicle>
    <vehicle id="c65.0" type="type1" depart="0.00" departLane="random">
        <route edges="-608715603 79366164 79366167 79366165 125835500 35633068#0 429571921 -125835568#1 -23707244 125835524#0 61556877#0 584356749 584356742 451873774#0 -116797180 4884707 19793164 80458208 -89574079 1115244401 305434579#0 305434579#7 578662094#1 3991636#0 174985125 3991635#0"/>
    </vehicle>
    <vehicle id="c66.0" type="type1" depart="0.00" departLane="random">
        <route edges="126679459#0 10155837#2 3869830#2 8127969#2 -3358673 61557498#0 61557498#1 15050767 683066057#4 683066057#8 1085069641#1 843033243#0 843033242#2 8129915#0 -3871577#3 -3871577#0 -284664272#5 -284664272#1 -284664268 -438252643#2 125835563#0 -13865507#2 292233691#0 -126304963#1 3992583#0 126348346#0 126348346#3 126348346#6 125835549#0 3991683#0 125835549#3 125835569 -608715546 3991635#0"/>
    </vehicle>
    <vehicle id="c68.0" type="type1" depart="0.00" departLane="random">
        <route edges="4061636#0 192659011 461159358 192659022#0 -16771608#0 8128111#0 16771609 1047365121#0 3390192 461159345 88361317#0 3677944#0 3677944#1 174338458#1 521193380 429706864 813979472 79289746 813979470 249333186 249333185 8131121 8131121-AddedOffRampEdge 1081668996 3358667 8127689 23837544-AddedOnRampEdge 23837544 438252639 125835624#0 507005804 148252702#0 608715517 -304584473 -608715514 -1044729460#3 -1044729460#0 8129915#5 8129915#9 -148251239#1 -60966477#4 -60966478#1 -8412180#2 -99500130#2 844373391#0 10269420#0 99500129 -3992549#5 -3992549#3 126348346#0 126348346#3 126348346#6 125835549#0 125835549#2 125835549#3 125835569 -608715546 3991635#0"/>
    </vehicle>
    <vehicle id="c69.0" type="type1" depart="0.00" departLane="random">
        <route edges="24905254 24905255#0 24905256#0 24905256#2 857806575 857806576 8130905#0 4003928 863272997 4003927#2 4003927#5 19793254 4884714#0 254811217#0 85044941 263138306 61540068 254801390 61540098 61540078#0 23691158 254800931 8133608#0 -316395269#4 -25983368#7 -25983368#4 -25983368#1 -26085017#6 -26085017#2 -456815187#1 14971387#0 -8055845#0 578662094#1 3991636#0 174985125 3991635#0"/>
    </vehicle>
    <vehicle id="c70.0" type="type1" depart="0.00" departLane="random">
        <route edges="-37713149#1 -1155226687 -377918607 -351000218#2 4004855#0 345381453 345381481#0 949701271-AddedOnRampEdge 949701271 345381442 13884500 4884478 345592227 4858224 292472285 79501549 292472305 949703711 139807120#0 192559621 292472310#0 292472297 292472294 148252690#0 148252706 125835610 9812591#0 109267417 3993388 1085888987 254800932#0 23691158 254800931 8133608#0 81457878 6184898#0 19793164 80458208 -89574079 1115244401 305434579#0 305434579#7 578662094#1 3991636#0 174985125 3991635#0"/>
    </vehicle>
    <vehicle id="c72.0" type="type1" depart="0.00" departLane="random">
        <route edges="-99500153#2 -99500158 -3992549#5 -3992549#3 126348346#0 126348346#3 126348346#6 125835549#0 3991683#0 125835549#3 125835569 -608715546 3991635#0"/>
    </vehicle>
    <vehicle id="c73.0" type="type1" depart="0.00" departLane="random">
        <route edges="430047989#6 -430047989#8 -430047989#5 -430047989#3 -430047989#2 -430047989#1 -125835570 -294365637 -3871574#3 -293787287#6 -293787287#2 -8412180#2 -99500130#2 844373391#0 10269420#0 99500129 -3992549#5 -3992549#3 126348346#0 126348346#3 126348346#6 125835549#0 125835549#2 125835549#3 125835569 -608715546 3991635#0"/>
    </vehicle>
    <vehicle id="c74.0" type="type1" depart="0.00" departLane="random">
        <route edges="89873168 -9904060#3 -9904060#1 -9904060#0 71407869#0 11998434 414596337 -152919736#2 -499072205#2 -1036486947#1 1036486949#0 485802425#0 -23707242#1 -608715582#1 -608715586#3 -3992546 -10230617 -1217801803#3 -23707243#2 -23707243#1 -23707244 125835524#0 61556877#0 584356749 584356742 451873774#0 -116797180 4884707 19793164 80458208 -89574079 1115244401 305434579#0 305434579#7 578662094#1 3991636#0 174985125 3991635#0"/>
    </vehicle>
    <vehicle id="c75.0" type="type1" depart="0.00" departLane="random">
        <route edges="112917249 79801761 61596758 -112917248 -192706265#1 15081945#1 -14359727#7 -14359727#0 11094212#0 11094212#1 -688347311#3 -688347311#2 -23889534#5 23889533 -31058513#1 87304285#0 31058502#1 31092208#0 -126304956#5 -126304956#2 -1010515587#1 -25155106#2 128494230 -126304967#6 -126304967#4 -126304967#1 -61596289#0 -23707243#2 -23707243#1 -23707244 125835524#0 61556877#0 584356749 584356742 451873774#0 -116797180 4884707 19793164 80458208 -89574079 1115244401 305434579#0 305434579#7 578662094#1 3991636#0 174985125 3991635#0"/>
    </vehicle>
    <vehicle id="c77.0" type="type1" depart="0.00" departLane="random">
        <route edges="-662329847 -662329851#0 -3351203#0 -608715568#2 723240771#0 723240771#3 3848767 723240769#0 28588899#0 28588899#2 23237287#0 3677332 1055164587 55067673 3677944#0 3677944#1 174338458#1 521193380 429706864 813979472 79289746 813979470 249333186 249333185 8131121 8131121-AddedOffRampEdge 225605630 23837544-AddedOnRampEdge 23837544 146171871 3877105 8131125 3993387 109267417 3993388 1085888987 254800932#0 23691158 254800931 8133608#0 81457878 6184898#0 19793164 80458208 -89574079 1115244401 305434579#0 305434579#7 578662094#1 3991636#0 174985125 3991635#0"/>
    </vehicle>
    <vehicle id="c79.0" type="type1" depart="0.00" departLane="random">
        <route edges="430047989#6 -430047989#8 -430047989#5 -430047989#3 -430047989#2 -430047989#1 -125835570 -294365637 -3871574#3 -293787287#6 -293787287#2 -8412180#2 -99500130#2 844373391#0 10269420#0 99500129 -3992549#5 -3992549#3 126348346#0 126348347#0 126348337#0 126348346#6 125835549#0 3991683#0 125835549#3 125835569 -608715546 3991635#0"/>
    </vehicle>
    <vehicle id="c8.0" type="type1" depart="0.00" departLane="random">
        <route edges="-290375126#4 147856936#4 -3871577#0 -284664272#5 -284664272#1 8412197#0 8412197#5 8412197#11 126409539 -99500130#2 844373391#0 10269420#0 99500129 -3992549#5 -3992549#3 126348346#0 126348346#3 126348346#6 125835549#0 125835549#2 125835549#3 125835569 -608715546 3991635#0"/>
    </vehicle>
    <vehicle id="c80.0" type="type1" depart="0.00" departLane="random">
        <route edges="-742307325 -742307323 -152919736#2 -499072205#2 -1036486947#1 1036486949#0 485802425#0 -23707242#1 -608715582#1 -608715586#3 -3992546 -10230617 -1217801803#3 -23707243#2 -23707243#1 -23707244 125835524#0 61556877#0 584356749 584356742 451873774#0 -116797180 4884707 19793164 80458208 -89574079 1115244401 305434579#0 305434579#7 578662094#1 3991636#0 174985125 3991635#0"/>
    </vehicle>
    <vehicle id="c81.0" type="type1" depart="0.00" departLane="random">
        <route edges="112917227#0 23707241 25155107#0 61596558#0 126304939#0 -1010515587#1 -25155106#2 128494230 -126304967#6 -126304967#4 -126304967#1 -61596289#0 -23707243#2 -23707243#1 -23707244 125835524#0 61556877#0 584356749 584356742 451873774#0 -116797180 4884707 19793164 80458208 -89574079 1115244401 305434579#0 26085018#0 14971387#0 -8055845#0 578662094#1 3991636#0 174985125 3991635#0"/>
    </vehicle>