<?xml version="1.0" encoding="UTF-8"?>

<!-- generated on 2024-01-26 16:01:20 by Eclipse SUMO duarouter Version 1.19.0
<configuration xmlns:xsi="http://www.w3.org/2001/XMLSchema-instance" xsi:noNamespaceSchemaLocation="http://sumo.dlr.de/xsd/duarouterConfiguration.xsd">

    <input>
        <net-file value="Sumo/osm.net.xml"/>
        <route-files value="Sumo/uniform_traffic_demand.xml"/>
    </input>

    <output>
        <output-file value="Sumo/uniform_traffic_demand.rou.xml"/>
    </output>

    <processing>
        <repair value="true"/>
        <weights.random-factor value="25"/>
    </processing>

</configuration>
-->

<routes xmlns:xsi="http://www.w3.org/2001/XMLSchema-instance" xsi:noNamespaceSchemaLocation="http://sumo.dlr.de/xsd/routes_file.xsd">
    <vType id="type1" length="5.00" maxSpeed="70.00" accel="2.6" decel="4.5" sigma="0.5"/>
    <vehicle id="c0.0" type="type1" depart="0.00" departLane="random">
        <route edges="608715568#0 -608715568#0 -608715566 -439142857#3 3677822#0 608715575#0 608715575#1 120086001#0 120086001#1 120086001#2 120086001#3 120086001#4 120086001#6 120086001#8 120086001#9 3991775#0 199381120 24905254 24905255#0 24905256#0 24905256#2 857806575 857806576 8130905#0 4003928 8590413#0 4003927#2 4003927#5 19793254 4884714#0 254811217#0 85044941 263138306 61540068 254801390 61540098 61540078#0 23691158 254800931 8133608#0 81457878 6184898#0 19793164 80458208 -89574079 1115244401 305434579#0 305434579#7 578662094#1 3991636#0 174985125 3991635#0"/>
    </vehicle>
    <vehicle id="c1.0" type="type1" depart="0.00" departLane="random">
        <route edges="81457871#0 25983371#0 25813260#0 -26085017#6 -26085017#2 -456815187#1 14971387#0 8055845#1 -8055845#3 -8055845#0 578662094#1 3991636#0 174985125 3991635#0"/>
    </vehicle>
    <vehicle id="c10.0" type="type1" depart="0.00" departLane="random">
        <route edges="-439142856#3 439142856#2 1063831485 1063831486#1 1063831514 1063831513 4003927#5 19793254 4884714#0 104341004#0 12714939 320591282#0 61556877#0 584356749 584356742 451873774#0 -116797180 4884707 19793164 80458208 -89574079 1115244401 305434579#0 305434579#7 578662094#1 3991636#0 174985125 3991635#0"/>
    </vehicle>
    <vehicle id="c11.0" type="type1" depart="0.00" departLane="random">
        <route edges="4061640#0 61540068 254801390 340265962 949615544#0 98825484 304241967 304241968 29283599#0 510790348 314635787#0 314635787#1 314635787#2 -126415113#1 -99500153#2 -99500158 -3992549#5 -3992549#3 126348346#0 126348346#3 126348346#6 125835549#0 125835549#2 125835549#3 125835569 -608715546 3991635#0"/>
    </vehicle>
    <vehicle id="c12.0" type="type1" depart="0.00" departLane="random">
        <route edges="608715568#0 -608715568#0 -608715566 -439142857#3 3677330#0 23237287#0 3677335#0 461159367 461159362#0 461159346 325166039#2 461159351 461159369#0 461159369#3 461159369#5 8127969#0 8127969#1 8127969#2 -3358673 -578662071 -123929615#1 -961131597#2 -961131597#0 -3358675 1085069643 1085069641#0 1085069641#1 843033243#0 843033242#2 8129915#0 8129915#5 8129915#9 -148251239#1 -60966477#4 -60966478#1 -8412180#2 -99500130#2 844373391#0 10269420#0 99500129 -3992549#5 -3992549#3 126348346#0 126348346#3 126348346#6 125835549#0 125835549#2 125835549#3 125835569 -608715546 3991635#0"/>
    </vehicle>
    <vehicle id="c13.0" type="type1" depart="0.00" departLane="random">
        <route edges="22675199#0 -22675199#2 89866047#0 89866047#2 609706113 13523066#0 1056637435 1056637435-AddedOffRampEdge 586268890#0 863272998 863272997 4003927#2 4003927#5 19793254 4884714#0 254811217#0 85044941 263138306 61540068 254801390 61540098 61540078#0 23691158 254800931 8133608#0 -316395269#4 -25983368#7 -25983368#4 -25983368#1 -26085017#6 -26085017#2 -456815187#1 14971387#0 -8055845#0 578662094#1 3991636#0 174985125 3991635#0"/>
    </vehicle>
    <vehicle id="c14.0" type="type1" depart="0.00" departLane="random">
        <route edges="85044922#6 3677329 90168774#1 90168774#2 3677822#0 608715575#0 608715575#1 120086001#0 120086001#1 120086001#2 120086001#3 120086001#4 120086001#6 120086001#8 120086001#9 3991775#0 199381120 24905254 24905255#0 24905256#0 24905256#2 857806575 857806576 8130905#0 4003928 863272997 4003927#2 4003927#5 19793254 4884714#0 254811217#0 85044941 263138306 61540068 254801390 340265962 949615544#0 98825484 304241967 304241968 29283599#0 510790348 314635787#0 314635787#1 314635787#2 -126415113#1 -99500153#2 -99500158 -3992549#5 -3992549#3 126348346#0 126348346#3 126348346#6 125835549#0 125835549#2 125835549#3 125835569 -608715546 3991635#0"/>
    </vehicle>
    <vehicle id="c15.0" type="type1" depart="0.00" departLane="random">
        <route edges="1063831487 -3343969#1 1063831486#1 1063831514 1063831513 4003927#5 19793254 4884714#0 254811217#0 85044941 263138306 61540068 254801390 61540098 61540078#0 23691158 254800931 8133608#0 -316395269#4 -25983368#7 -25983368#4 -25983368#1 -26085017#6 -26085017#2 -456815187#1 14971387#0 -8055845#0 578662094#1 3991636#0 174985125 3991635#0"/>
    </vehicle>
    <vehicle id="c16.0" type="type1" depart="0.00" departLane="random">
        <route edges="8590231#0 12712557 1063831514 1063831513 4003927#5 19793254 4884714#0 254811217#0 85044941 263138306 61540068 254801390 61540098 61540078#0 23691158 254800931 8133608#0 -316395269#4 -25983368#7 -25983368#4 -25983368#1 -26085017#6 -26085017#2 -456815187#1 14971387#0 -8055845#0 578662094#1 3991636#0 174985125 3991635#0"/>
    </vehicle>
    <vehicle id="c17.0" type="type1" depart="0.00" departLane="random">
        <route edges="521211970#0 123929457#3 1085544572 147856945#0 147856945#6 147856945#7 147856945#9 147856945#10 -284664272#5 -284664272#1 -284664268 -438252643#2 125835563#0 -13865507#2 292233691#0 -126304963#1 3992583#0 126348346#0 126348346#3 126348346#6 125835549#0 3991683#0 125835549#3 125835569 -608715546 3991635#0"/>
    </vehicle>
    <vehicle id="c18.0" type="type1" depart="0.00" departLane="random">
        <route edges="-99500133#2 126304963#0 -126304963#1 3992583#0 126348346#0 126348347#0 126348337#0 126348346#6 125835549#0 125835549#2 125835549#3 125835569 -608715546 3991635#0"/>
    </vehicle>
    <vehicle id="c19.0" type="type1" depart="0.00" departLane="random">
        <route edges="53063944#0 -53063940#3 -60966478#1 -8412180#2 -99500130#2 844373391#0 10269420#0 99500129 -3992549#5 -3992549#3 126348346#0 126348346#3 126348346#6 125835549#0 125835549#2 125835549#3 125835569 -608715546 3991635#0"/>
    </vehicle>
    <vehicle id="c2.0" type="type1" depart="0.00" departLane="random">
        <route edges="-608715598#5 3351203#0 3351203#1 3351205 3351197 725072194#1 3351198 -608715532#1 -342997240 -3991778 3991775#0 199381120 24905254 24905255#0 24905256#0 24905256#2 857806575 857806576 8130905#0 4003928 863272997 4003927#2 4003927#5 19793254 4884714#0 104341004#0 12714939 320591282#0 61556877#0 584356749 584356742 451873774#0 -116797180 4884707 19793164 80458208 -89574079 1115244401 305434579#0 26085018#0 14971387#0 -8055845#0 578662094#1 3991636#0 174985125 3991635#0"/>
    </vehicle>
    <vehicle id="c20.0" type="type1" depart="0.00" departLane="random">
        <route edges="3869830#2 8127969#2 -3358673 61557498#0 86126157#0 86126157#1 683066057#3 683066057#4 683066057#8 1085069641#1 843033243#0 843033242#2 8129915#0 -3871577#3 -3871577#0 -284664272#5 -284664272#1 -284664268 -438252643#2 125835563#0 -13865507#2 292233691#0 -126304963#1 3992583#0 126348346#0 126348346#3 126348346#6 125835549#0 125835549#2 125835549#3 125835569 -608715546 3991635#0"/>
    </vehicle>
    <vehicle id="c21.0" type="type1" depart="0.00" departLane="random">
        <route edges="23237286#1 3877007#0 512610535#0 17410062#0 17410062#4 3869830#2 8127969#2 -3358673 61557498#0 61557498#1 15050767 683066057#4 683066057#8 1085069641#1 843033243#0 843033242#2 23349994#0 147856945#10 -284664272#5 -284664272#1 -284664268 -438252643#2 125835563#0 -13865507#2 292233691#0 -126304963#1 3992583#0 126348346#0 126348346#3 126348346#6 125835549#0 125835549#2 125835549#3 125835569 -608715546 3991635#0"/>
    </vehicle>
    <vehicle id="c22.0" type="type1" depart="0.00" departLane="random">
        <route edges="3990535#0 44949316#0 44949316#1 567873927#6 89076283#0 -3991554#4 3343976#0 3343976#9 13523027#0 898173885#1 13523066#0 1056637435 1056637435-AddedOffRampEdge 586268890#0 863272998 863272997 4003927#2 4003927#5 19793254 4884714#0 254811217#0 85044941 263138306 61540068 254801390 340265962 949615544#0 98825484 304241967 304241968 29283599#0 510790348 314635787#0 314635787#1 314635787#2 -126415113#1 -99500153#2 -99500158 -3992549#5 -3992549#3 126348346#0 126348346#3 126348346#6 125835549#0 3991683#0 125835549#3 125835569 -608715546 3991635#0"/>
    </vehicle>
    <vehicle id="c23.0" type="type1" depart="0.00" departLane="random">
        <route edges="148252701 1085069645 1085069641#0 1085069641#1 843033243#0 843033242#2 23349994#0 147856945#10 -284664272#5 -284664272#1 -284664268 -438252643#2 125835563#0 -13865507#2 292233691#0 -126304963#1 3992583#0 126348346#0 126348346#3 126348346#6 125835549#0 3991683#0 125835549#3 125835569 -608715546 3991635#0"/>
    </vehicle>
    <vehicle id="c24.0" type="type1" depart="0.00" departLane="random">
        <route edges="3616406#1 3752568#0 -8302412#3 -8302412#0 3390203 125472517#0 3450250 3390201 27022062#0 -27062245#4 27062244#0 461159369#3 461159369#5 8127969#0 8127969#1 8127969#2 -3358673 61557498#0 86126157#0 86126157#1 683066057#3 683066057#4 683066057#8 1085069641#1 843033243#0 843033242#2 23349994#0 147856945#10 -284664272#5 -284664272#1 -284664268 -438252643#2 125835563#0 -13865507#2 292233691#0 -126304963#1 3992583#0 126348346#0 126348346#3 126348346#6 125835549#0 125835549#2 125835549#3 125835569 -608715546 3991635#0"/>
    </vehicle>
    <vehicle id="c25.0" type="type1" depart="0.00" departLane="random">
        <route edges="61557498#1 15050767 683066057#4 683066057#8 1085069641#1 843033243#0 843033242#2 23349994#0 147856945#10 -284664272#5 -284664272#1 -284664268 -438252643#2 125835563#0 -13865507#2 292233691#0 -126304963#1 3992583#0 126348346#0 126348347#0 126348337#0 126348346#6 125835549#0 125835549#2 125835549#3 125835569 -608715546 3991635#0"/>
    </vehicle>
    <vehicle id="c26.0" type="type1" depart="0.00" departLane="random">
        <route edges="312257887 456815189#0 25922239#0 9852941#4 99500149#0 99500150#0 99500150#3 31473619#0 -26085017#6 -26085017#2 -456815187#1 14971387#0 -8055845#0 578662094#1 3991636#0 174985125 3991635#0"/>
    </vehicle>
    <vehicle id="c27.0" type="type1" depart="0.00" departLane="random">
        <route edges="22675199#0 -22675199#2 89866047#0 89866047#2 609706113 13523066#0 1056637435 1056637435-AddedOffRampEdge 586268890#0 863272998 8590413#0 4003927#2 4003927#5 19793254 4884714#0 254811217#0 85044941 263138306 61540068 254801390 61540098 61540078#0 23691158 254800931 8133608#0 -316395269#4 -25983368#7 -25983368#4 -25983368#1 -26085017#6 -26085017#2 -456815187#1 14971387#0 -8055845#0 578662094#1 3991636#0 174985125 3991635#0"/>
    </vehicle>
    <vehicle id="c28.0" type="type1" depart="0.00" departLane="random">
        <route edges="53063944#0 -53063940#3 -60966478#1 -8412180#2 -99500130#2 844373391#0 10269420#0 99500129 -3992549#5 -3992549#3 126348346#0 126348347#0 126348337#0 126348346#6 125835549#0 125835549#2 125835549#3 125835569 -608715546 3991635#0"/>
    </vehicle>
    <vehicle id="c29.0" type="type1" depart="0.00" departLane="random">
        <route edges="-26410169#1 79022446 3876848#0 151093190 3876851#0 3876851#1 3876851#3 622063652#0 305316103 568941304 338057819 425777009#0 3992548#0 254800931 8133608#0 -316395269#4 -25983368#7 -25983368#4 -25983368#1 -26085017#6 -26085017#2 -456815187#1 14971387#0 -8055845#0 578662094#1 3991636#0 174985125 3991635#0"/>
    </vehicle>
    <vehicle id="c3.0" type="type1" depart="0.00" departLane="random">
        <route edges="3390201 27022062#0 -27062245#4 27062244#0 461159369#3 461159369#5 8127969#0 8127969#1 8127969#2 -3358673 -578662071 -123929615#1 -961131597#2 -961131597#0 -3358675 1085069643 1085069641#0 1085069641#1 843033243#0 843033242#2 8129915#0 8129915#5 8129915#9 8129915#12 -293787287#6 -293787287#2 -8412180#2 -99500130#2 844373391#0 10269420#0 99500129 -3992549#5 -3992549#3 126348346#0 126348347#0 126348337#0 126348346#6 125835549#0 125835549#2 125835549#3 125835569 -608715546 3991635#0"/>
    </vehicle>
    <vehicle id="c30.0" type="type1" depart="0.00" departLane="random">
        <route edges="3358669#7 -608715644#1 -3358669#6 -3358669#5 -1044729458#1 148252701 1085069645 1085069641#0 1085069641#1 843033243#0 843033242#2 8129915#0 -3871577#3 -3871577#0 -284664272#5 -284664272#1 -284664268 -438252643#2 125835563#0 -13865507#2 292233691#0 -126304963#1 3992583#0 126348346#0 126348347#0 126348337#0 126348346#6 125835549#0 125835549#2 125835549#3 125835569 -608715546 3991635#0"/>
    </vehicle>
    <vehicle id="c31.0" type="type1" depart="0.00" departLane="random">
        <route edges="318825610#0 -16274573#14 16274573#13 98825476#0 304241967 304241968 3992548#0 254800931 8133608#0 81457878 6184898#0 19793164 80458208 -89574079 1115244401 305434579#0 305434579#7 578662094#1 3991636#0 174985125 3991635#0"/>
    </vehicle>
    <vehicle id="c32.0" type="type1" depart="0.00" departLane="random">
        <route edges="-8302412#0 3390203 125472517#0 3450250 3390201 27022062#0 -27062245#4 27062244#0 461159369#3 461159369#5 8127969#0 8127969#1 8127969#2 -3358673 61557498#0 61557498#1 15050767 683066057#4 683066057#8 1085069641#1 843033243#0 843033242#2 8129915#0 8129915#5 8129915#9 -148251239#1 -60966477#4 -60966478#1 -8412180#2 -99500130#2 844373391#0 10269420#0 99500129 -3992549#5 -3992549#3 126348346#0 126348346#3 126348346#6 125835549#0 3991683#0 125835549#3 125835569 -608715546 3991635#0"/>
    </vehicle>
    <vehicle id="c33.0" type="type1" depart="0.00" departLane="random">
        <route edges="-3991617#0 670002670#1 459216320#0 446474263#0 446474263#2 13523027#0 898173885#1 13523066#0 1056637435 1056637435-AddedOffRampEdge 586268890#0 863272998 8590413#0 4003927#2 4003927#5 19793254 4884714#0 254811217#0 85044941 263138306 61540068 254801390 340265962 949615544#0 98825484 304241967 304241968 29283599#0 510790348 314635787#0 314635787#1 314635787#2 -126415113#1 -99500153#2 -99500158 -3992549#5 -3992549#3 126348346#0 126348346#3 126348346#6 125835549#0 125835549#2 125835549#3 125835569 -608715546 3991635#0"/>
    </vehicle>
    <vehicle id="c34.0" type="type1" depart="0.00" departLane="random">
        <route edges="-3991617#0 670002670#1 459216320#0 446474263#0 446474263#2 13523027#0 898173885#1 13523066#0 1056637435 1056637435-AddedOffRampEdge 586268890#0 863272998 863272997 4003927#2 4003927#5 19793254 4884714#0 104341004#0 12714939 320591282#0 61556877#0 584356749 584356742 451873774#0 -116797180 4884707 19793164 80458208 -89574079 1115244401 305434579#0 26085018#0 14971387#0 -8055845#0 578662094#1 3991636#0 174985125 3991635#0"/>
    </vehicle>
    <vehicle id="c35.0" type="type1" depart="0.00" departLane="random">
        <route edges="3869832#0 17410128#2 17410128#5 453808502#0 99500135#0 314109838#1 297017195#0 23237286#1 3877007#0 512610535#0 17410062#0 17410062#4 3869830#2 8127969#2 -3358673 61557498#0 61557498#1 15050767 683066057#4 683066057#8 1085069641#1 843033243#0 843033242#2 8129915#0 8129915#5 8129915#9 8129915#12 -293787287#6 -293787287#2 -8412180#2 -99500130#2 844373391#0 10269420#0 99500129 -3992549#5 -3992549#3 126348346#0 126348346#3 126348346#6 125835549#0 3991683#0 125835549#3 125835569 -608715546 3991635#0"/>
    </vehicle>
    <vehicle id="c36.0" type="type1" depart="0.00" departLane="random">
        <route edges="17410128#5 453808502#0 99500135#0 314109838#1 297017195#0 23237286#1 3877007#0 512610535#0 17410062#0 17410062#4 3869830#2 8127969#2 -3358673 61557498#0 61557498#1 15050767 683066057#4 683066057#8 1085069641#1 843033243#0 843033242#2 8129915#0 -3871577#3 -3871577#0 -284664272#5 -284664272#1 8412197#0 8412197#5 8412197#11 126409539 -99500130#2 844373391#0 10269420#0 99500129 -3992549#5 -3992549#3 126348346#0 126348346#3 126348346#6 125835549#0 125835549#2 125835549#3 125835569 -608715546 3991635#0"/>
    </vehicle>
    <vehicle id="c37.0" type="type1" depart="0.00" departLane="random">
        <route edges="-8302412#0 3390203 125472517#0 3450250 3390201 27022062#0 -27062245#4 27062244#0 461159369#3 461159369#5 8127969#0 8127969#1 8127969#2 -3358673 -578662071 -123929615#1 -961131597#2 -961131597#0 -3358675 1085069643 1085069641#0 1085069641#1 843033243#0 843033242#2 23349994#0 147856945#10 -284664272#5 -284664272#1 -284664268 -438252643#2 125835563#0 -13865507#2 292233691#0 -126304963#1 3992583#0 126348346#0 126348346#3 126348346#6 125835549#0 125835549#2 125835549#3 125835569 -608715546 3991635#0"/>
    </vehicle>
    <vehicle id="c38.0" type="type1" depart="0.00" departLane="random">
        <route edges="17410128#5 453808502#0 99500135#0 314109838#1 297017195#0 23237286#1 3877007#0 512610535#0 17410062#0 17410062#4 3869830#2 8127969#2 -3358673 61557498#0 61557498#1 15050767 683066057#4 683066057#8 1085069641#1 843033243#0 843033242#2 23349994#0 147856945#10 -284664272#5 -284664272#1 -284664268 -438252643#2 125835563#0 -13865507#2 292233691#0 -126304963#1 3992583#0 126348346#0 126348346#3 126348346#6 125835549#0 125835549#2 125835549#3 125835569 -608715546 3991635#0"/>
    </vehicle>
    <vehicle id="c39.0" type="type1" depart="0.00" departLane="random">
        <route edges="10295839 876185327 10296368#2 893696211#1 876185324 9923624#0 24905254 24905255#0 24905256#0 24905256#2 857806575 857806576 8130905#0 4003928 8590413#0 4003927#2 4003927#5 19793254 4884714#0 254811217#0 85044941 263138306 61540068 254801390 340265962 949615544#0 98825484 304241967 304241968 29283599#0 510790348 314635787#0 314635787#1 314635787#2 -126415113#1 -99500153#2 -99500158 -3992549#5 -3992549#3 126348346#0 126348346#3 126348346#6 125835549#0 125835549#2 125835549#3 125835569 -608715546 3991635#0"/>
    </vehicle>
    <vehicle id="c4.0" type="type1" depart="0.00" departLane="random">
        <route edges="19793254 4884714#0 104341004#0 12714939 320591282#0 61556877#0 584356749 584356742 451873774#0 -116797180 4884707 19793164 80458208 -89574079 1115244401 305434579#0 305434579#7 578662094#1 3991636#0 174985125 3991635#0"/>
    </vehicle>
    <vehicle id="c40.0" type="type1" depart="0.00" departLane="random">
        <route edges="-3351203#5 3351205 3351197 725072194#1 3351198 -608715532#1 -342997240 -3991778 3991775#0 199381120 24905254 24905255#0 24905256#0 24905256#2 857806575 857806576 8130905#0 4003928 863272997 4003927#2 4003927#5 19793254 4884714#0 254811217#0 85044941 263138306 61540068 254801390 61540098 61540078#0 23691158 254800931 8133608#0 -316395269#4 -25983368#7 -25983368#4 -25983368#1 -26085017#6 -26085017#2 -456815187#1 14971387#0 -8055845#0 578662094#1 3991636#0 174985125 3991635#0"/>
    </vehicle>
    <vehicle id="c41.0" type="type1" depart="0.00" departLane="random">
        <route edges="439142855#0 86249595#0 86249619#0 3677944#1 174338458#1 521193380 429706864 813979472 79289746 813979470 249333186 249333185 8131121 8131121-AddedOffRampEdge 225605630 23837544-AddedOnRampEdge 23837544 146171871 3877105 8131125 3993387 109267417 3993388 1085888987 254800932#0 23691158 254800931 8133608#0 -316395269#4 -25983368#7 -25983368#4 -25983368#1 -26085017#6 -26085017#2 -456815187#1 14971387#0 -8055845#0 578662094#1 3991636#0 174985125 3991635#0"/>
    </vehicle>
    <vehicle id="c42.0" type="type1" depart="0.00" departLane="random">
        <route edges="-8302412#0 3390203 125472517#0 3450250 3390201 27022062#0 -27062245#4 27062244#0 461159369#3 461159369#5 8127969#0 8127969#1 8127969#2 -3358673 -578662071 -61557498#4 3752560 -3358675 1085069643 1085069641#0 1085069641#1 843033243#0 843033242#2 8129915#0 -3871577#3 -3871577#0 -284664272#5 -284664272#1 -284664268 -438252643#2 125835563#0 -13865507#2 292233691#0 -126304963#1 3992583#0 126348346#0 126348346#3 126348346#6 125835549#0 3991683#0 125835549#3 125835569 -608715546 3991635#0"/>
    </vehicle>
    <vehicle id="c43.0" type="type1" depart="0.00" departLane="random">
        <route edges="25922446#0 25813260#0 -26085017#6 -26085017#2 -456815187#1 14971387#0 -8055845#0 578662094#1 3991636#0 174985125 3991635#0"/>
    </vehicle>
    <vehicle id="c44.0" type="type1" depart="0.00" departLane="random">
        <route edges="-38542472#4 38542472#1 -25983368#7 -25983368#4 -25983368#1 -26085017#6 -26085017#2 -456815187#1 14971387#0 -8055845#0 578662094#1 3991636#0 174985125 3991635#0"/>
    </vehicle>
    <vehicle id="c45.0" type="type1" depart="0.00" departLane="random">
        <route edges="521211970#0 123929457#3 1085544572 147856945#0 147856945#6 147856945#7 147856945#9 147856945#10 -284664272#5 -284664272#1 8412197#0 8412197#5 8412197#11 126409539 -99500130#2 844373391#0 10269420#0 99500129 -3992549#5 -3992549#3 126348346#0 126348346#3 126348346#6 125835549#0 125835549#2 125835549#3 125835569 -608715546 3991635#0"/>
    </vehicle>
    <vehicle id="c46.0" type="type1" depart="0.00" departLane="random">
        <route edges="-439142856#3 439142856#2 1063831485 1063831486#1 1063831514 1063831513 4003927#5 19793254 4884714#0 254811217#0 85044941 263138306 61540068 254801390 61540098 61540078#0 23691158 254800931 8133608#0 -316395269#4 -25983368#7 -25983368#4 -25983368#1 -26085017#6 -26085017#2 -456815187#1 14971387#0 -8055845#0 578662094#1 3991636#0 174985125 3991635#0"/>
    </vehicle>
    <vehicle id="c47.0" type="type1" depart="0.00" departLane="random">
        <route edges="3358669#7 608715644#2 192559651#0 8127689 23837544-AddedOnRampEdge 23837544 438252639 125835624#0 507005804 125835610 9812591#0 109267417 3993388 1085888987 254800932#0 23691158 254800931 8133608#0 -316395269#4 -25983368#7 -25983368#4 -25983368#1 -26085017#6 -26085017#2 -456815187#1 14971387#0 -8055845#0 578662094#1 3991636#0 174985125 3991635#0"/>
    </vehicle>
    <vehicle id="c48.0" type="type1" depart="0.00" departLane="random">
        <route edges="1063831487 -3343969#1 1063831486#1 1063831514 1063831513 4003927#5 19793254 4884714#0 254811217#0 85044941 263138306 61540068 254801390 61540098 61540078#0 23691158 254800931 8133608#0 -316395269#4 -25983368#7 -25983368#4 -25983368#1 -26085017#6 -26085017#2 -456815187#1 14971387#0 -8055845#0 578662094#1 3991636#0 174985125 3991635#0"/>
    </vehicle>
    <vehicle id="c49.0" type="type1" depart="0.00" departLane="random">
        <route edges="-608715598#5 -608715568#2 -608715568#1 -608715568#0 -608715566 -439142857#3 3677822#0 608715575#0 608715575#1 120086001#0 120086001#1 120086001#2 120086001#3 120086001#4 120086001#6 120086001#8 120086001#9 3991775#0 199381120 24905254 24905255#0 24905256#0 24905256#2 857806575 857806576 8130905#0 4003928 863272997 4003927#2 4003927#5 19793254 4884714#0 104341004#0 12714939 320591282#0 61556877#0 584356749 584356742 451873774#0 -116797180 4884707 19793164 80458208 -89574079 1115244401 305434579#0 305434579#7 578662094#1 3991636#0 174985125 3991635#0"/>
    </vehicle>
    <vehicle id="c5.0" type="type1" depart="0.00" departLane="random">
        <route edges="61540098 61540078#0 23691158 254800931 8133608#0 81457878 6184898#0 19793164 80458208 -89574079 1115244401 305434579#0 305434579#7 578662094#1 3991636#0 174985125 3991635#0"/>
    </vehicle>
    <vehicle id="c50.0" type="type1" depart="0.00" departLane="random">
        <route edges="567873927#0 567873927#6 89076283#0 -3991554#4 3343976#0 3343957#0 3343957#4 3343963#0 -8116858#1 609706113 13523066#0 1056637435 1056637435-AddedOffRampEdge 586268890#0 863272998 863272997 4003927#2 4003927#5 19793254 4884714#0 254811217#0 85044941 263138306 61540068 254801390 61540098 61540078#0 23691158 254800931 8133608#0 -316395269#4 -25983368#7 -25983368#4 -25983368#1 -26085017#6 -26085017#2 -456815187#1 14971387#0 -8055845#0 578662094#1 3991636#0 174985125 3991635#0"/>
    </vehicle>
    <vehicle id="c51.0" type="type1" depart="0.00" departLane="random">
        <route edges="-147856945#8 147856945#7 147856945#9 147856945#10 -284664272#5 -284664272#1 8412197#0 8412197#5 8412197#11 126409539 -99500130#2 844373391#0 10269420#0 99500129 -3992549#5 -3992549#3 126348346#0 126348346#3 126348346#6 125835549#0 125835549#2 125835549#3 125835569 -608715546 3991635#0"/>
    </vehicle>
    <vehicle id="c52.0" type="type1" depart="0.00" departLane="random">
        <route edges="-38542472#4 38542472#1 -25983368#7 -25983368#4 -25983368#1 -26085017#6 -26085017#2 -456815187#1 14971387#0 -8055845#0 578662094#1 3991636#0 174985125 3991635#0"/>
    </vehicle>
    <vehicle id="c53.0" type="type1" depart="0.00" departLane="random">
        <route edges="696009881 696004317 27022062#0 -27062245#4 -439142859#7 454112424 126679459#0 10155837#2 3869830#2 8127969#2 -3358673 61557498#0 86126157#0 86126157#1 683066057#3 683066057#4 683066057#8 1085069641#1 843033243#0 843033242#2 23349994#0 147856945#10 -284664272#5 -284664272#1 8412197#0 8412197#5 8412197#11 126409539 -99500130#2 844373391#0 10269420#0 99500129 -3992549#5 -3992549#3 126348346#0 126348346#3 126348346#6 125835549#0 125835549#2 125835549#3 125835569 -608715546 3991635#0"/>
    </vehicle>
    <vehicle id="c54.0" type="type1" depart="0.00" departLane="random">
        <route edges="192659022#0 -16771608#0 8128111#0 16771609 1047365121#0 3390192 461159346 325166039#2 461159351 461159369#0 461159369#3 461159369#5 8127969#0 8127969#1 8127969#2 -3358673 61557498#0 61557498#1 15050767 683066057#4 683066057#8 1085069641#1 843033243#0 843033242#2 8129915#0 8129915#5 8129915#9 -148251239#1 -60966477#4 -60966478#1 -8412180#2 -99500130#2 844373391#0 10269420#0 99500129 -3992549#5 -3992549#3 126348346#0 126348346#3 126348346#6 125835549#0 125835549#2 125835549#3 125835569 -608715546 3991635#0"/>
    </vehicle>
    <vehicle id="c55.0" type="type1" depart="0.00" departLane="random">
        <route edges="-99500133#2 126304963#0 -126304963#1 3992583#0 126348346#0 126348346#3 126348346#6 125835549#0 125835549#2 125835549#3 125835569 -608715546 3991635#0"/>
    </vehicle>
    <vehicle id="c56.0" type="type1" depart="0.00" departLane="random">
        <route edges="8133608#0 -316395269#4 -25983368#7 -25983368#4 -25983368#1 -26085017#6 -26085017#2 -456815187#1 14971387#0 -8055845#0 578662094#1 3991636#0 174985125 3991635#0"/>
    </vehicle>
    <vehicle id="c57.0" type="type1" depart="0.00" departLane="random">
        <route edges="3869830#2 8127969#2 -3358673 -578662071 -61557498#4 3752560 -3358675 1085069643 1085069641#0 1085069641#1 843033243#0 843033242#2 8129915#0 8129915#5 8129915#9 -148251239#1 -60966477#4 -60966478#1 -8412180#2 -99500130#2 844373391#0 10269420#0 99500129 -3992549#5 -3992549#3 126348346#0 126348346#3 126348346#6 125835549#0 125835549#2 125835549#3 125835569 -608715546 3991635#0"/>
    </vehicle>
    <vehicle id="c58.0" type="type1" depart="0.00" departLane="random">
        <route edges="567873927#0 567873927#6 89076283#0 -3991554#4 3343973#0 8127646 -608715532#1 -342997240 -3991778 3991775#0 199381120 24905254 24905255#0 24905256#0 24905256#2 857806575 857806576 8130905#0 4003928 863272997 4003927#2 4003927#5 19793254 4884714#0 254811217#0 85044941 263138306 61540068 254801390 61540098 61540078#0 23691158 254800931 8133608#0 81457878 6184898#0 19793164 80458208 -89574079 1115244401 305434579#0 305434579#7 578662094#1 3991636#0 174985125 3991635#0"/>
    </vehicle>
    <vehicle id="c59.0" type="type1" depart="0.00" departLane="random">
        <route edges="461159369#0 -461159369#2 -461159351 461159348 88361317#0 3677944#0 3677944#1 174338458#1 521193380 429706864 813979472 79289746 813979470 249333186 249333185 8131121 8131121-AddedOffRampEdge 225605630 23837544-AddedOnRampEdge 23837544 146171871 3877105 8131125 3993387 109267417 3993388 1085888987 254800932#0 23691158 254800931 8133608#0 -316395269#4 -25983368#7 -25983368#4 -25983368#1 -26085017#6 -26085017#2 -456815187#1 14971387#0 -8055845#0 578662094#1 3991636#0 174985125 3991635#0"/>
    </vehicle>
    <vehicle id="c6.0" type="type1" depart="0.00" departLane="random">
        <route edges="4061640#0 61540068 254801390 61540098 61540078#0 23691158 254800931 8133608#0 -316395269#4 -25983368#7 -25983368#4 -11999380#1 608436906#0 31473619#0 -26085017#6 -26085017#2 -456815187#1 14971387#0 -8055845#0 578662094#1 3991636#0 174985125 3991635#0"/>
    </vehicle>
    <vehicle id="c60.0" type="type1" depart="0.00" departLane="random">
        <route edges="3993388 1085888987 254800932#0 23691158 254800931 8133608#0 -316395269#4 -25983368#7 -25983368#4 -25983368#1 -26085017#6 -26085017#2 -456815187#1 14971387#0 -8055845#0 578662094#1 3991636#0 174985125 3991635#0"/>
    </vehicle>
    <vehicle id="c61.0" type="type1" depart="0.00" departLane="random">
        <route edges="439142855#0 86249595#0 86249619#0 3677944#1 174338458#1 521193380 -578662086 -123929657#1 -961131597#2 -961131597#0 -3358675 1085069643 1085069641#0 1085069641#1 843033243#0 843033242#2 8129915#0 8129915#5 8129915#9 -148251239#1 10155487#0 10155487#5 10155487#6 10155487#7 -293787287#2 -8412180#2 -99500130#2 844373391#0 10269420#0 99500129 -3992549#5 -3992549#3 126348346#0 126348346#3 126348346#6 125835549#0 125835549#2 125835549#3 125835569 -608715546 3991635#0"/>
    </vehicle>
    <vehicle id="c62.0" type="type1" depart="0.00" departLane="random">
        <route edges="19793254 4884714#0 254811217#0 85044941 263138306 61540068 254801390 340265962 949615544#0 98825484 304241967 304241968 29283599#0 510790348 314635787#0 314635787#1 314635787#2 -126415113#1 -99500153#2 -99500158 -3992549#5 -3992549#3 126348346#0 126348347#0 126348337#0 126348346#6 125835549#0 3991683#0 125835549#3 125835569 -608715546 3991635#0"/>
    </vehicle>
    <vehicle id="c63.0" type="type1" depart="0.00" departLane="random">